@<TRIPOS>MOLECULE
SPE_0048
27 28 1 0 0
SMALL
NO_CHARGES


@<TRIPOS>ATOM
      1 O1          8.7750    0.9250   20.7060 O.2       1 S48   -0.6031
      2 C1          8.2560    0.0170   21.3790 C.2       1 S48    0.7671
      3 N1          8.9630   -0.6810   22.3500 N.pl3     1 S48   -0.4591
      4 C2         10.2840   -0.2350   22.6650 C.ar      1 S48    0.0556
      5 C3         10.4370    0.8910   23.4730 C.ar      1 S48   -0.1545
      6 C4         11.7160    1.3590   23.7460 C.ar      1 S48   -0.1085
      7 C5         12.8230    0.7040   23.2210 C.ar      1 S48   -0.1480
      8 C6         12.6590   -0.4360   22.4430 C.ar      1 S48   -0.1085
      9 C7         11.3890   -0.9150   22.1510 C.ar      1 S48   -0.1545
     10 N2          6.9090   -0.3580   21.1820 N.pl3     1 S48   -0.4581
     11 C8          6.2440    0.1920   20.0610 C.ar      1 S48   -0.0557
     12 C9          5.0490    0.9030   20.2060 C.ar      1 S48   -0.1470
     13 C10         4.4480    1.4210   19.0660 C.ar      1 S48   -0.2233
     14 C11         5.0640    1.2210   17.8260 C.ar      1 S48    0.3722
     15 N3          6.2090    0.5210   17.6680 N.ar      1 S48   -0.6460
     16 C12         6.7880    0.0140   18.7760 C.ar      1 S48    0.3952
     17 H1          8.5990   -1.5040   22.8260 H         1 S48    0.3065
     18 H3          9.5630    1.4090   23.8880 H         1 S48    0.1485
     19 H4         11.8400    2.2540   24.3630 H         1 S48    0.1350
     20 H5         13.8260    1.0990   23.4010 H         1 S48    0.1340
     21 H6         13.5360   -0.9530   22.0400 H         1 S48    0.1350
     22 H7         11.2610   -1.8040   21.5200 H         1 S48    0.1485
     23 H2          6.3350   -0.7240   21.9440 H         1 S48    0.3075
     24 H9          4.5940    1.0710   21.1910 H         1 S48    0.1340
     25 H10         3.5270    2.0090   19.1360 H         1 S48    0.1430
     26 H11         4.6480    1.6600   16.9120 H         1 S48    0.0241
     27 F1          7.8277   -0.6076   18.5903 F         1 S48    0.0601
@<TRIPOS>BOND
     1    1    2 2
     2    2    3 2
     3    2   10 2
     4    3    4 1
     5    3   17 1
     6    4    5 ar
     7    4    9 ar
     8    5    6 ar
     9    5   18 1
    10    6    7 ar
    11    6   19 1
    12    7    8 ar
    13    7   20 1
    14    8    9 ar
    15    8   21 1
    16    9   22 1
    17   10   11 1
    18   10   23 1
    19   11   12 ar
    20   11   16 ar
    21   12   13 ar
    22   12   24 1
    23   13   14 ar
    24   13   25 1
    25   14   15 ar
    26   14   26 1
    27   15   16 ar
    28   16   27 1
@<TRIPOS>SUBSTRUCTURE
     1 S48     1 RESIDUE           4 A     S48     0 ROOT
