@<TRIPOS>MOLECULE
S89
   37    39     1     0     1 
SMALL
USER_CHARGES
@<TRIPOS>ATOM
  1 C1     13.648000   -1.255000   23.648000 c3    1 S89     0.0851 ****
  2 N1     12.239000   -0.878000   23.757000 nx    1 S89    -0.6744 ****
  3 O1      8.923000    1.397000   21.168000 o     1 S89    -0.6281 ****
  4 C2     11.388000   -1.823000   23.028000 c3    1 S89     0.0643 ****
  5 N2      9.748000   -0.082000   22.651000 n     1 S89    -0.4028 ****
  6 C3      9.934000   -1.438000   23.160000 c3    1 S89     0.0285 ****
  7 N3      6.580000    0.354000   17.832000 na    1 S89    -0.2631 ****
  8 C4     10.573000    0.883000   23.374000 c3    1 S89     0.0285 ****
  9 N4      4.588000    1.541000   18.516000 nb    1 S89    -0.6490 ****
 10 C5     12.025000    0.484000   23.260000 c3    1 S89     0.0643 ****
 11 C6      8.992000    0.244000   21.588000 c     1 S89     0.7191 ****
 12 N7      8.236000   -0.875000   20.887000 ns    1 S89    -0.3941 ****
 13 C8      7.366000   -0.290000   19.826000 cc    1 S89    -0.0416 ****
 14 C9      7.582000   -0.319000   18.481000 cd    1 S89     0.0673 ****
 15 C10     5.696000    0.825000   18.756000 ca    1 S89     0.4418 ****
 16 C11     3.892000    1.890000   19.605000 ca    1 S89     0.4282 ****
 17 C12     4.252000    1.575000   20.913000 ca    1 S89    -0.2533 ****
 18 C13     5.403000    0.852000   21.141000 ca    1 S89    -0.0570 ****
 19 C14     6.158000    0.452000   20.033000 ca    1 S89    -0.1981 ****
 20 HN1    11.978000   -0.904000   24.733000 hn    1 S89     0.4408 ****
 21 H22    11.532000   -2.823000   23.436000 hx    1 S89     0.1210 ****
 22 H23    11.667000   -1.820000   21.974000 hx    1 S89     0.1210 ****
 23 H32     9.320000   -2.131000   22.584000 h1    1 S89     0.0999 ****
 24 H33     9.641000   -1.477000   24.209000 h1    1 S89     0.0999 ****
 25 H42    10.434000    1.875000   22.944000 h1    1 S89     0.0999 ****
 26 H43    10.281000    0.897000   24.424000 h1    1 S89     0.0999 ****
 27 H52    12.631000    1.176000   23.845000 hx    1 S89     0.1210 ****
 28 H53    12.330000    0.536000   22.215000 hx    1 S89     0.1210 ****
 29 Cl1     8.767000   -1.001000   17.797000 cl    1 S89    -0.0214 ****
 30 H11     2.985000    2.457000   19.459000 h4    1 S89     0.0391 ****
 31 HN3     6.508000    0.480000   16.832000 hn    1 S89     0.3327 ****
 32 H14    13.783000   -2.270000   24.023000 hx    1 S89     0.1060 ****
 33 H15    13.956000   -1.210000   22.604000 hx    1 S89     0.1060 ****
 34 H16    14.255000   -0.567000   24.236000 hx    1 S89     0.1060 ****
 35 H12     3.635000    1.894000   21.740000 ha    1 S89     0.1550 ****
 36 HN7     8.311000   -1.858000   21.105000 hn    1 S89     0.3485 ****
 37 H13     5.713000    0.602000   22.145000 ha    1 S89     0.1360 ****
@<TRIPOS>BOND
    1     1     2 1
    2     1    32 1
    3     1    33 1
    4     1    34 1
    5     2     4 1
    6     2    10 1
    7     2    20 1
    8     3    11 1
    9     4     6 1
   10     4    21 1
   11     4    22 1
   12     5    11 1
   13     5     6 1
   14     5     8 1
   15     6    23 1
   16     6    24 1
   17     7    14 1
   18     7    15 1
   19     7    31 1
   20     8    10 1
   21     8    25 1
   22     8    26 1
   23     9    15 1
   24     9    16 1
   25    10    27 1
   26    10    28 1
   27    11    12 1
   28    12    13 1
   29    12    36 1
   30    13    14 1
   31    13    19 1
   32    14    29 1
   33    15    19 1
   34    16    17 1
   35    16    30 1
   36    17    18 1
   37    17    35 1
   38    18    19 1
   39    18    37 1
@<TRIPOS>SUBSTRUCTURE
      1  S89              1 ****               0 ****  **** 
