@<TRIPOS>MOLECULE
Cpptraj Generated mol2 file.
   34    35     1     0     0
SMALL
USER_CHARGES


@<TRIPOS>ATOM
      1 O1          9.2625    1.2113   20.9780 o          1 S36     -0.584100
      2 C1          8.6993    0.5006   21.8201 c          1 S36      0.666100
      3 C2          9.3190    0.0940   23.1380 c3         1 S36     -0.153400
      4 C3         10.8452    0.0292   23.0258 c3         1 S36     -0.061700
      5 C4         11.2618   -1.0657   22.0400 c3         1 S36     -0.074900
      6 C5         12.4780   -1.8568   22.5105 c3         1 S36     -0.074900
      7 C6         13.5301   -0.9807   23.1712 c3         1 S36     -0.077400
      8 C7         12.9647   -0.1323   24.3077 c3         1 S36     -0.074900
      9 C8         11.4474   -0.2291   24.4066 c3         1 S36     -0.074900
     10 N1          7.3931    0.0736   21.5969 ns         1 S36     -0.467100
     11 C9          6.7061    0.3925   20.4039 ca         1 S36     -0.045700
     12 C10         5.4187    0.9378   20.4578 ca         1 S36     -0.156000
     13 C11         4.7794    1.2448   19.2660 ca         1 S36     -0.218300
     14 C12         5.4400    0.9953   18.0600 ca         1 S36      0.362200
     15 N2          6.6760    0.4563   17.9869 nb         1 S36     -0.642000
     16 C13         7.2972    0.1555   19.1472 ca         1 S36      0.374200
     17 H22         8.9210   -0.8792   23.5079 hc         1 S36      0.074200
     18 H23         9.0054    0.8393   23.9039 hc         1 S36      0.074200
     19 H3         11.2256    1.0183   22.6596 hc         1 S36      0.066700
     20 H42        10.4336   -1.7784   21.8349 hc         1 S36      0.039700
     21 H43        11.4480   -0.6102   21.0488 hc         1 S36      0.039700
     22 H52        12.9320   -2.3899   21.6495 hc         1 S36      0.041950
     23 H53        12.1658   -2.6642   23.2069 hc         1 S36      0.041950
     24 H62        14.3548   -1.6233   23.5486 hc         1 S36      0.042700
     25 H63        14.0118   -0.3345   22.4110 hc         1 S36      0.042700
     26 H72        13.4334   -0.4278   25.2685 hc         1 S36      0.041950
     27 H73        13.2617    0.9292   24.1678 hc         1 S36      0.041950
     28 H82        11.0629    0.4990   25.1509 hc         1 S36      0.039700
     29 H83        11.1290   -1.2161   24.7998 hc         1 S36      0.039700
     30 H1          6.8511   -0.3890   22.3314 hn         1 S36      0.318500
     31 H10         4.9184    1.1261   21.4183 ha         1 S36      0.133000
     32 H11         3.7866    1.7026   19.2689 ha         1 S36      0.142000
     33 H12         4.9800    1.2484   17.1003 h4         1 S36      0.023100
     34 H13         8.2950   -0.2948   19.0465 h4         1 S36      0.063100
@<TRIPOS>BOND
    1    15    16 1
    2    14    15 1
    3    13    14 1
    4    12    13 1
    5    11    12 1
    6    11    16 1
    7    10    11 1
    8     8     9 1
    9     7     8 1
   10     6     7 1
   11     5     6 1
   12     4     5 1
   13     4     9 1
   14     3     4 1
   15     2     3 1
   16     2    10 1
   17     1     2 1
   18    16    34 1
   19    14    33 1
   20    13    32 1
   21    12    31 1
   22    10    30 1
   23     9    28 1
   24     9    29 1
   25     8    26 1
   26     8    27 1
   27     7    24 1
   28     7    25 1
   29     6    22 1
   30     6    23 1
   31     5    20 1
   32     5    21 1
   33     4    19 1
   34     3    17 1
   35     3    18 1
@<TRIPOS>SUBSTRUCTURE
      1 S36               1 ****               0 ****  **** 
