@<TRIPOS>MOLECULE
S33
   30    32     1     0     1 
SMALL
USER_CHARGES
@<TRIPOS>ATOM
  1 O1      9.098000    0.717000   20.863000 o     1 S33    -0.6081 ****
  2 C1      8.544000   -0.200000   21.373000 c     1 S33     0.7721 ****
  3 N1      9.181000   -0.926000   22.445000 ns    1 S33    -0.4621 ****
  4 C2     10.466000   -0.447000   22.851000 ca    1 S33     0.0606 ****
  5 C3     10.500000    0.387000   23.949000 ca    1 S33    -0.1570 ****
  6 C4     11.704000    0.900000   24.365000 ca    1 S33    -0.1085 ****
  7 C5     12.865000    0.584000   23.673000 ca    1 S33    -0.1500 ****
  8 C6     12.823000   -0.250000   22.569000 ca    1 S33    -0.1085 ****
  9 C7     11.612000   -0.763000   22.147000 ca    1 S33    -0.1570 ****
 10 N2      7.237000   -0.626000   20.941000 ns    1 S33    -0.4531 ****
 11 C8      6.559000    0.058000   19.874000 ca    1 S33     0.0173 ****
 12 C9      5.353000    0.683000   20.152000 ca    1 S33     0.0374 ****
 13 C10     4.726000    1.339000   19.105000 ca    1 S33    -0.1725 ****
 14 C11     5.321000    1.305000   17.849000 ca    1 S33     0.3762 ****
 15 N3      6.472000    0.710000   17.644000 nb    1 S33    -0.6280 ****
 16 C12     7.103000    0.084000   18.602000 ca    1 S33     0.3522 ****
 17 H1      8.745000   -1.725000   22.883000 hn    1 S33     0.3105 ****
 18 H3      9.590000    0.634000   24.476000 ha    1 S33     0.1490 ****
 19 H4     11.747000    1.548000   25.228000 ha    1 S33     0.1340 ****
 20 H5     13.810000    0.993000   23.999000 ha    1 S33     0.1330 ****
 21 H6     13.732000   -0.498000   22.041000 ha    1 S33     0.1340 ****
 22 H7     11.562000   -1.403000   21.278000 ha    1 S33     0.1490 ****
 23 H2      6.793000   -1.413000   21.392000 hn    1 S33     0.3295 ****
 24 N4      3.747000    2.158000   19.596000 na    1 S33    -0.2763 ****
 25 H11     4.822000    1.782000   17.019000 h4    1 S33     0.0261 ****
 26 H12     8.043000   -0.410000   18.402000 h4    1 S33     0.0651 ****
 27 N8      4.719000    0.914000   21.268000 nc    1 S33    -0.5821 ****
 28 C13     3.804000    1.786000   20.941000 cd    1 S33     0.4297 ****
 29 H13     3.162000    2.246000   21.673000 h5    1 S33     0.0728 ****
 30 HN4     3.609000    3.124000   19.280000 hn    1 S33     0.3117 ****
@<TRIPOS>BOND
    1     1     2 1
    2     2     3 1
    3     2    10 1
    4     3     4 1
    5     3    17 1
    6     4     5 1
    7     4     9 1
    8     5     6 1
    9     5    18 1
   10     6     7 1
   11     6    19 1
   12     7     8 1
   13     7    20 1
   14     8     9 1
   15     8    21 1
   16     9    22 1
   17    10    11 1
   18    10    23 1
   19    11    12 1
   20    11    16 1
   21    12    13 1
   22    12    27 1
   23    13    14 1
   24    13    24 1
   25    14    15 1
   26    14    25 1
   27    15    16 1
   28    16    26 1
   29    24    28 1
   30    24    30 1
   31    27    28 1
   32    28    29 1
@<TRIPOS>SUBSTRUCTURE
      1  S33              1 ****               0 ****  **** 
