@<TRIPOS>MOLECULE
S38
   39    40     1     0     1 
SMALL
USER_CHARGES
@<TRIPOS>ATOM
  1 O1      9.368000    1.112000   21.032000 o     1 S38    -0.5821 ****
  2 C1      8.812000    0.322000   21.727000 c     1 S38     0.6661 ****
  3 C2      9.352000   -0.144000   23.066000 c3    1 S38    -0.1534 ****
  4 C3     10.867000   -0.069000   23.126000 c3    1 S38    -0.0617 ****
  5 C4     11.508000   -1.037000   22.134000 c3    1 S38    -0.0749 ****
  6 C5     12.763000   -1.702000   22.688000 c3    1 S38    -0.0749 ****
  7 C6     13.552000   -0.848000   23.672000 c3    1 S38    -0.0774 ****
  8 C7     12.711000   -0.142000   24.731000 c3    1 S38    -0.0749 ****
  9 C8     11.221000   -0.391000   24.564000 c3    1 S38    -0.0749 ****
 10 N1      7.560000   -0.247000   21.355000 ns    1 S38    -0.4681 ****
 11 C9      6.951000    0.180000   20.136000 ca    1 S38    -0.0087 ****
 12 C10     5.707000    0.782000   20.273000 ca    1 S38    -0.2200 ****
 13 C11     5.095000    1.217000   19.105000 ca    1 S38     0.0573 ****
 14 C12     5.761000    1.032000   17.901000 ca    1 S38     0.3122 ****
 15 N2      6.956000    0.463000   17.840000 nb    1 S38    -0.6160 ****
 16 C13     7.580000    0.035000   18.916000 ca    1 S38     0.3302 ****
 17 H22     9.044000   -1.177000   23.229000 hc    1 S38     0.0732 ****
 18 H23     8.934000    0.481000   23.855000 hc    1 S38     0.0732 ****
 19 H3     11.187000    0.947000   22.895000 hc    1 S38     0.0677 ****
 20 H42    10.783000   -1.812000   21.886000 hc    1 S38     0.0394 ****
 21 H43    11.768000   -0.492000   21.226000 hc    1 S38     0.0394 ****
 22 H52    13.416000   -1.946000   21.850000 hc    1 S38     0.0414 ****
 23 H53    12.475000   -2.628000   23.185000 hc    1 S38     0.0414 ****
 24 H62    14.267000   -1.494000   24.183000 hc    1 S38     0.0427 ****
 25 H63    14.105000   -0.095000   23.111000 hc    1 S38     0.0427 ****
 26 H72    13.016000   -0.501000   25.714000 hc    1 S38     0.0414 ****
 27 H73    12.898000    0.930000   24.674000 hc    1 S38     0.0414 ****
 28 H82    10.658000    0.253000   25.239000 hc    1 S38     0.0394 ****
 29 H83    10.995000   -1.436000   24.775000 hc    1 S38     0.0394 ****
 30 H1      7.113000   -0.938000   21.941000 hn    1 S38     0.3165 ****
 31 H10     5.239000    0.905000   21.239000 ha    1 S38     0.1340 ****
 32 N3      3.839000    1.825000   19.113000 nu    1 S38    -0.7276 ****
 33 H12     5.291000    1.362000   16.986000 h4    1 S38     0.0211 ****
 34 H13     8.558000   -0.418000   18.847000 h4    1 S38     0.0621 ****
 35 C14     3.299000    2.472000   20.312000 c3    1 S38     0.1751 ****
 36 HN3     3.698000    2.388000   18.263000 hn    1 S38     0.4028 ****
 37 H141    2.503000    3.173000   20.033000 h1    1 S38     0.0377 ****
 38 H142    2.897000    1.721000   21.004000 h1    1 S38     0.0377 ****
 39 H143    4.081000    3.032000   20.835000 h1    1 S38     0.0377 ****
@<TRIPOS>BOND
    1     1     2 1
    2     2     3 1
    3     2    10 1
    4     3     4 1
    5     3    17 1
    6     3    18 1
    7     4     5 1
    8     4     9 1
    9     4    19 1
   10     5     6 1
   11     5    20 1
   12     5    21 1
   13     6     7 1
   14     6    22 1
   15     6    23 1
   16     7     8 1
   17     7    24 1
   18     7    25 1
   19     8     9 1
   20     8    26 1
   21     8    27 1
   22     9    28 1
   23     9    29 1
   24    10    11 1
   25    10    30 1
   26    11    12 1
   27    11    16 1
   28    12    13 1
   29    12    31 1
   30    13    14 1
   31    13    32 1
   32    14    15 1
   33    14    33 1
   34    15    16 1
   35    16    34 1
   36    32    35 1
   37    32    36 1
   38    35    37 1
   39    35    38 1
   40    35    39 1
@<TRIPOS>SUBSTRUCTURE
      1  S38              1 ****               0 ****  **** 
