@<TRIPOS>MOLECULE
Cpptraj Generated mol2 file.
   39    40     1     0     0
SMALL
USER_CHARGES


@<TRIPOS>ATOM
      1 O1          9.3120    1.2041   21.0101 o          1 S38     -0.582100
      2 C1          8.7469    0.4730   21.8294 c          1 S38      0.666100
      3 C2          9.3557    0.0358   23.1425 c3         1 S38     -0.153400
      4 C3         10.8822    0.0054   23.0463 c3         1 S38     -0.061700
      5 C4         11.3302   -1.0595   22.0391 c3         1 S38     -0.074900
      6 C5         12.5380   -1.8575   22.5177 c3         1 S38     -0.074900
      7 C6         13.5789   -0.9927   23.2066 c3         1 S38     -0.077400
      8 C7         12.9944   -0.1460   24.3337 c3         1 S38     -0.074900
      9 C8         11.4798   -0.2655   24.4266 c3         1 S38     -0.074900
     10 N1          7.4385    0.0564   21.5930 ns         1 S38     -0.468100
     11 C9          6.7689    0.4128   20.3982 ca         1 S38     -0.008700
     12 C10         5.5270    1.0434   20.4711 ca         1 S38     -0.220000
     13 C11         4.8925    1.4072   19.2761 ca         1 S38      0.057300
     14 C12         5.5430    1.0895   18.0559 ca         1 S38      0.312200
     15 N2          6.7353    0.4725   17.9912 nb         1 S38     -0.616000
     16 C13         7.3451    0.1369   19.1439 ca         1 S38      0.330200
     17 H22         8.9732   -0.9557   23.4757 hc         1 S38      0.073200
     18 H23         9.0181    0.7533   23.9252 hc         1 S38      0.073200
     19 H3         11.2455    1.0083   22.7036 hc         1 S38      0.067700
     20 H42        10.5118   -1.7692   21.7939 hc         1 S38      0.039450
     21 H43        11.5357   -0.5728   21.0674 hc         1 S38      0.039450
     22 H52        13.0044   -2.3788   21.6555 hc         1 S38      0.041450
     23 H53        12.2144   -2.6747   23.1974 hc         1 S38      0.041450
     24 H62        14.3917   -1.6421   23.5974 hc         1 S38      0.042700
     25 H63        14.0805   -0.3436   22.4620 hc         1 S38      0.042700
     26 H72        13.4660   -0.4262   25.2975 hc         1 S38      0.041450
     27 H73        13.2752    0.9200   24.1898 hc         1 S38      0.041450
     28 H82        11.0813    0.4478   25.1784 hc         1 S38      0.039450
     29 H83        11.1719   -1.2625   24.8031 hc         1 S38      0.039450
     30 H1          6.8942   -0.4326   22.3070 hn         1 S38      0.316500
     31 H10         5.0753    1.2467   21.4501 ha         1 S38      0.134000
     32 N3          3.6301    1.9886   19.2415 nu         1 S38     -0.727600
     33 H12         5.1131    1.3617   17.0857 h4         1 S38      0.021100
     34 H13         8.3142   -0.3720   19.0411 h4         1 S38      0.062100
     35 C14         3.0761    2.5895   20.4579 c3         1 S38      0.175100
     36 HN3         3.3886    2.4542   18.3641 hn         1 S38      0.402800
     37 H141        2.1460    3.1351   20.2150 h1         1 S38      0.037700
     38 H142        2.8294    1.8108   21.2051 h1         1 S38      0.037700
     39 H143        3.7441    3.3219   20.9480 h1         1 S38      0.037700
@<TRIPOS>BOND
    1    32    35 1
    2    15    16 1
    3    14    15 1
    4    13    14 1
    5    13    32 1
    6    12    13 1
    7    11    12 1
    8    11    16 1
    9    10    11 1
   10     8     9 1
   11     7     8 1
   12     6     7 1
   13     5     6 1
   14     4     5 1
   15     4     9 1
   16     3     4 1
   17     2     3 1
   18     2    10 1
   19     1     2 1
   20    35    37 1
   21    35    38 1
   22    35    39 1
   23    32    36 1
   24    16    34 1
   25    14    33 1
   26    12    31 1
   27    10    30 1
   28     9    28 1
   29     9    29 1
   30     8    26 1
   31     8    27 1
   32     7    24 1
   33     7    25 1
   34     6    22 1
   35     6    23 1
   36     5    20 1
   37     5    21 1
   38     4    19 1
   39     3    17 1
   40     3    18 1
@<TRIPOS>SUBSTRUCTURE
      1 S38               1 ****               0 ****  **** 
