@<TRIPOS>MOLECULE
Cpptraj Generated mol2 file.
   37    39     1     0     0
SMALL
USER_CHARGES


@<TRIPOS>ATOM
      1 O1          9.3213    1.2605   20.9764 o          1 S44     -0.570100
      2 C1          8.7796    0.5537   21.8154 c          1 S44      0.672100
      3 C2          9.3825    0.1516   23.1376 c3         1 S44     -0.150400
      4 C3         10.9054    0.0357   23.0173 c3         1 S44     -0.061700
      5 C4         11.2784   -1.0863   22.0474 c3         1 S44     -0.075400
      6 C5         12.4973   -1.8809   22.5053 c3         1 S44     -0.075400
      7 C6         13.5627   -1.0052   23.1484 c3         1 S44     -0.077400
      8 C7         13.0199   -0.1641   24.3024 c3         1 S44     -0.075400
      9 C8         11.5002   -0.2280   24.3997 c3         1 S44     -0.075400
     10 N1          7.4657    0.1103   21.5914 ns         1 S44     -0.482100
     11 C9          6.7922    0.4308   20.3984 cc         1 S44      0.002000
     12 N5          5.5577    1.0951   20.5209 na         1 S44     -0.000300
     13 C11         4.7725    1.3695   19.3682 cc         1 S44     -0.137600
     14 C12         5.3496    1.0566   18.0911 cc         1 S44      0.434200
     15 N2          6.5266    0.4839   17.9745 nd         1 S44     -0.630000
     16 C13         7.2349    0.1500   19.1236 cd         1 S44      0.334200
     17 H22         8.9612   -0.8016   23.5334 hc         1 S44      0.076700
     18 H23         9.0990    0.9371   23.8767 hc         1 S44      0.076700
     19 H3         11.3169    1.0057   22.6355 hc         1 S44      0.067700
     20 H42        10.4357   -1.7931   21.8843 hc         1 S44      0.039700
     21 H43        11.4465   -0.6571   21.0403 hc         1 S44      0.039700
     22 H52        12.9376   -2.4214   21.6414 hc         1 S44      0.042950
     23 H53        12.1918   -2.6824   23.2123 hc         1 S44      0.042950
     24 H62        14.3969   -1.6464   23.5073 hc         1 S44      0.043700
     25 H63        14.0230   -0.3522   22.3796 hc         1 S44      0.043700
     26 H72        13.4822   -0.4857   25.2586 hc         1 S44      0.042950
     27 H73        13.3433    0.8914   24.1798 hc         1 S44      0.042950
     28 H82        11.1346    0.5143   25.1391 hc         1 S44      0.039700
     29 H83        11.1595   -1.2066   24.7964 hc         1 S44      0.039700
     30 H1          6.9546   -0.4483   22.2837 hn         1 S44      0.326500
     31 C15         4.8253    1.5064   21.6335 cc         1 S44     -0.234100
     32 N3          3.5831    1.9185   19.7353 nd         1 S44     -0.264600
     33 H12         4.7955    1.3222   17.1815 h4         1 S44      0.054100
     34 H13         8.1816   -0.3738   18.9297 h4         1 S44      0.071100
     35 C14         3.6170    2.0011   21.1227 cd         1 S44      0.016600
     36 H14         2.7759    2.4182   21.6889 h4         1 S44      0.185000
     37 H15         5.1705    1.4206   22.6688 h4         1 S44      0.178000
@<TRIPOS>BOND
    1    32    35 1
    2    31    35 1
    3    15    16 1
    4    14    15 1
    5    13    14 1
    6    13    32 1
    7    12    13 1
    8    12    31 1
    9    11    12 1
   10    11    16 1
   11    10    11 1
   12     8     9 1
   13     7     8 1
   14     6     7 1
   15     5     6 1
   16     4     5 1
   17     4     9 1
   18     3     4 1
   19     2     3 1
   20     2    10 1
   21     1     2 1
   22    35    36 1
   23    31    37 1
   24    16    34 1
   25    14    33 1
   26    10    30 1
   27     9    28 1
   28     9    29 1
   29     8    26 1
   30     8    27 1
   31     7    24 1
   32     7    25 1
   33     6    22 1
   34     6    23 1
   35     5    20 1
   36     5    21 1
   37     4    19 1
   38     3    17 1
   39     3    18 1
@<TRIPOS>SUBSTRUCTURE
      1 S44               1 ****               0 ****  **** 
