@<TRIPOS>MOLECULE
Cpptraj Generated mol2 file.
   30    32     1     0     0
SMALL
USER_CHARGES


@<TRIPOS>ATOM
      1 O1          8.8140    0.9618   20.6862 o          1 S31     -0.602100
      2 C1          8.3600   -0.0037   21.3135 c          1 S31      0.769100
      3 N1          9.1048   -0.7159   22.2481 ns         1 S31     -0.457100
      4 C2         10.4182   -0.2448   22.5615 ca         1 S31      0.054600
      5 C3         10.5495    0.9248   23.3191 ca         1 S31     -0.153500
      6 C4         11.8157    1.3965   23.6129 ca         1 S31     -0.108500
      7 C5         12.9414    0.7182   23.1589 ca         1 S31     -0.146000
      8 C6         12.7955   -0.4622   22.4285 ca         1 S31     -0.108500
      9 C7         11.5390   -0.9490   22.1191 ca         1 S31     -0.153500
     10 N2          7.0294   -0.4275   21.1222 ns         1 S31     -0.451100
     11 C8          6.3141    0.1202   20.0379 cc         1 S31      0.041600
     12 C9          5.0889    0.8064   20.3073 cc         1 S31     -0.074300
     13 N5          4.3875    1.3523   19.1977 na         1 S31      0.060600
     14 C11         4.9204    1.2477   17.8960 cc         1 S31      0.233400
     15 N3          6.0503    0.6040   17.6754 nd         1 S31     -0.353000
     16 C12         6.7489    0.0402   18.7367 cd         1 S31      0.256900
     17 H1          8.7932   -1.5954   22.6551 hn         1 S31      0.308500
     18 H3          9.6627    1.4657   23.6720 ha         1 S31      0.148500
     19 H4         11.9244    2.3182   24.1969 ha         1 S31      0.135000
     20 H5         13.9343    1.1251   23.3410 ha         1 S31      0.135000
     21 H6         13.6855   -0.9963   22.0824 ha         1 S31      0.135000
     22 H7         11.4288   -1.8666   21.5241 ha         1 S31      0.148500
     23 H2          6.5113   -0.9670   21.8173 hn         1 S31      0.316500
     24 N4          3.2479    1.9958   19.6068 nc         1 S31     -0.252800
     25 H11         4.3804    1.7421   17.0684 h5         1 S31      0.074100
     26 H12         7.6837   -0.4655   18.4436 h4         1 S31      0.072100
     27 C14         4.3477    1.1174   21.4370 cd         1 S31     -0.252000
     28 H14         4.5718    0.8735   22.4706 ha         1 S31      0.164000
     29 C13         3.2211    1.8564   20.9626 cd         1 S31      0.002200
     30 H13         2.4067    2.2841   21.5588 h4         1 S31      0.056800
@<TRIPOS>BOND
    1    27    29 1
    2    24    29 1
    3    15    16 1
    4    14    15 1
    5    13    14 1
    6    13    24 1
    7    12    13 1
    8    12    27 1
    9    11    12 1
   10    11    16 1
   11    10    11 1
   12     8     9 1
   13     7     8 1
   14     6     7 1
   15     5     6 1
   16     4     5 1
   17     4     9 1
   18     3     4 1
   19     2     3 1
   20     2    10 1
   21     1     2 1
   22    29    30 1
   23    27    28 1
   24    16    26 1
   25    14    25 1
   26    10    23 1
   27     9    22 1
   28     8    21 1
   29     7    20 1
   30     6    19 1
   31     5    18 1
   32     3    17 1
@<TRIPOS>SUBSTRUCTURE
      1 S31               1 ****               0 ****  **** 
