@<TRIPOS>MOLECULE
Cpptraj Generated mol2 file.
   37    39     1     0     0
SMALL
USER_CHARGES


@<TRIPOS>ATOM
      1 O1          9.3558    1.2284   20.9592 o          1 S43     -0.581100
      2 C1          8.7926    0.5454   21.8136 c          1 S43      0.666100
      3 C2          9.4033    0.1310   23.1307 c3         1 S43     -0.151400
      4 C3         10.9272    0.0264   23.0151 c3         1 S43     -0.061700
      5 C4         11.3154   -1.0896   22.0419 c3         1 S43     -0.075400
      6 C5         12.5241   -1.8914   22.5138 c3         1 S43     -0.074900
      7 C6         13.5871   -1.0206   23.1631 c3         1 S43     -0.077400
      8 C7         13.0385   -0.1716   24.3069 c3         1 S43     -0.074900
      9 C8         11.5196   -0.2354   24.3995 c3         1 S43     -0.075400
     10 N1          7.4627    0.1582   21.6134 ns         1 S43     -0.459100
     11 C9          6.7756    0.4771   20.4303 cc         1 S43     -0.015700
     12 C10         5.4899    1.0942   20.5578 cc         1 S43     -0.076300
     13 N4          4.7614    1.3540   19.3646 na         1 S43      0.047200
     14 C12         5.3290    1.0590   18.1110 cc         1 S43      0.512400
     15 N2          6.5252    0.5181   18.0141 nd         1 S43     -0.656000
     16 C13         7.2457    0.2158   19.1651 cd         1 S43      0.344200
     17 H22         8.9833   -0.8290   23.5095 hc         1 S43      0.075700
     18 H23         9.1122    0.8909   23.8912 hc         1 S43      0.075700
     19 H3         11.3331    1.0001   22.6379 hc         1 S43      0.066700
     20 H42        10.4750   -1.7928   21.8576 hc         1 S43      0.039950
     21 H43        11.4989   -0.6545   21.0407 hc         1 S43      0.039950
     22 H52        12.9701   -2.4354   21.6557 hc         1 S43      0.042450
     23 H53        12.2072   -2.6892   23.2188 hc         1 S43      0.042450
     24 H62        14.4132   -1.6654   23.5313 hc         1 S43      0.043200
     25 H63        14.0611   -0.3750   22.3983 hc         1 S43      0.043200
     26 H72        13.4953   -0.4863   25.2676 hc         1 S43      0.042450
     27 H73        13.3585    0.8844   24.1777 hc         1 S43      0.042450
     28 H82        11.1473    0.5041   25.1382 hc         1 S43      0.039950
     29 H83        11.1790   -1.2139   24.7954 hc         1 S43      0.039950
     30 H1          6.9191   -0.2948   22.3525 hn         1 S43      0.326500
     31 C15         4.6935    1.5337   21.6082 cd         1 S43     -0.337600
     32 N3          3.5500    1.9312   19.6404 nc         1 S43     -0.551100
     33 H12         4.7506    1.3098   17.2067 h5         1 S43      0.073100
     34 H13         8.2196   -0.2596   18.9693 h4         1 S43      0.073100
     35 C14         3.5043    2.0388   20.9996 cd         1 S43      0.373500
     36 H14         2.6307    2.4687   21.5076 h4         1 S43      0.055800
     37 H15         4.9067    1.4892   22.6730 ha         1 S43      0.164000
@<TRIPOS>BOND
    1    32    35 1
    2    31    35 1
    3    15    16 1
    4    14    15 1
    5    13    14 1
    6    13    32 1
    7    12    13 1
    8    12    31 1
    9    11    12 1
   10    11    16 1
   11    10    11 1
   12     8     9 1
   13     7     8 1
   14     6     7 1
   15     5     6 1
   16     4     5 1
   17     4     9 1
   18     3     4 1
   19     2     3 1
   20     2    10 1
   21     1     2 1
   22    35    36 1
   23    31    37 1
   24    16    34 1
   25    14    33 1
   26    10    30 1
   27     9    28 1
   28     9    29 1
   29     8    26 1
   30     8    27 1
   31     7    24 1
   32     7    25 1
   33     6    22 1
   34     6    23 1
   35     5    20 1
   36     5    21 1
   37     4    19 1
   38     3    17 1
   39     3    18 1
@<TRIPOS>SUBSTRUCTURE
      1 S43               1 ****               0 ****  **** 
