@<TRIPOS>MOLECULE
Cpptraj Generated mol2 file.
   37    39     1     0     0
SMALL
USER_CHARGES


@<TRIPOS>ATOM
      1 O1          9.3304    1.2211   20.9935 o          1 S46     -0.579100
      2 C1          8.7317    0.5462   21.8335 c          1 S46      0.666100
      3 C2          9.3282    0.0881   23.1447 c3         1 S46     -0.153400
      4 C3         10.8561    0.0237   23.0461 c3         1 S46     -0.061700
      5 C4         11.2808   -1.0509   22.0412 c3         1 S46     -0.075400
      6 C5         12.4931   -1.8517   22.5057 c3         1 S46     -0.074900
      7 C6         13.5412   -0.9873   23.1873 c3         1 S46     -0.077400
      8 C7         12.9682   -0.1596   24.3353 c3         1 S46     -0.074900
      9 C8         11.4499   -0.2611   24.4250 c3         1 S46     -0.075400
     10 N1          7.3909    0.2135   21.6135 ns         1 S46     -0.463100
     11 C9          6.7664    0.5143   20.3902 ca         1 S46      0.026300
     12 C10         5.5153    1.1467   20.3580 ca         1 S46     -0.242900
     13 C11         4.9458    1.4667   19.0985 ca         1 S46     -0.143500
     14 C12         5.6193    1.1318   17.9066 ca         1 S46      0.364200
     15 N2          6.7965    0.5097   17.9532 nb         1 S46     -0.617000
     16 C13         7.3553    0.2027   19.1608 ca         1 S46      0.329200
     17 H22         8.9206   -0.8981   23.4636 hc         1 S46      0.074700
     18 H23         9.0080    0.8025   23.9359 hc         1 S46      0.074700
     19 H3         11.2420    1.0192   22.7039 hc         1 S46      0.067700
     20 H42        10.4546   -1.7595   21.8129 hc         1 S46      0.039700
     21 H43        11.4770   -0.5743   21.0622 hc         1 S46      0.039700
     22 H52        12.9516   -2.3720   21.6392 hc         1 S46      0.042200
     23 H53        12.1756   -2.6698   23.1871 hc         1 S46      0.042200
     24 H62        14.3639   -1.6352   23.5589 hc         1 S46      0.042700
     25 H63        14.0252   -0.3263   22.4413 hc         1 S46      0.042700
     26 H72        13.4344   -0.4691   25.2930 hc         1 S46      0.042200
     27 H73        13.2606    0.9056   24.2131 hc         1 S46      0.042200
     28 H82        11.0601    0.4515   25.1814 hc         1 S46      0.039700
     29 H83        11.1299   -1.2556   24.7966 hc         1 S46      0.039700
     30 H1          6.8133   -0.1950   22.3513 hn         1 S46      0.322500
     31 C15         4.5599    1.6008   21.3345 cc         1 S46      0.335800
     32 N3          3.7132    2.0562   19.3570 na         1 S46     -0.013100
     33 H12         5.2239    1.3968   16.9236 h4         1 S46      0.029100
     34 H13         8.3204   -0.3232   19.0909 h4         1 S46      0.065100
     35 N6          3.5027    2.1549   20.7040 nd         1 S46     -0.498100
     36 HN3         3.1394    2.5738   18.6887 hn         1 S46      0.330700
     37 H15         4.6295    1.5199   22.4246 h4         1 S46      0.050800
@<TRIPOS>BOND
    1    32    35 1
    2    31    35 1
    3    15    16 1
    4    14    15 1
    5    13    14 1
    6    13    32 1
    7    12    13 1
    8    12    31 1
    9    11    12 1
   10    11    16 1
   11    10    11 1
   12     8     9 1
   13     7     8 1
   14     6     7 1
   15     5     6 1
   16     4     5 1
   17     4     9 1
   18     3     4 1
   19     2     3 1
   20     2    10 1
   21     1     2 1
   22    32    36 1
   23    31    37 1
   24    16    34 1
   25    14    33 1
   26    10    30 1
   27     9    28 1
   28     9    29 1
   29     8    26 1
   30     8    27 1
   31     7    24 1
   32     7    25 1
   33     6    22 1
   34     6    23 1
   35     5    20 1
   36     5    21 1
   37     4    19 1
   38     3    17 1
   39     3    18 1
@<TRIPOS>SUBSTRUCTURE
      1 S46               1 ****               0 ****  **** 
