@<TRIPOS>MOLECULE
Cpptraj Generated mol2 file.
   30    32     1     0     0
SMALL
USER_CHARGES


@<TRIPOS>ATOM
      1 O1          8.8491    0.8665   20.7183 o          1 S34     -0.600100
      2 C1          8.3557   -0.0943   21.3335 c          1 S34      0.773100
      3 N1          9.0637   -0.8090   22.2965 ns         1 S34     -0.460100
      4 C2         10.3571   -0.3277   22.6472 ca         1 S34      0.056600
      5 C3         10.4482    0.7785   23.4984 ca         1 S34     -0.154500
      6 C4         11.7035    1.2980   23.7940 ca         1 S34     -0.108500
      7 C5         12.8455    0.7124   23.2603 ca         1 S34     -0.147000
      8 C6         12.7405   -0.4107   22.4516 ca         1 S34     -0.108500
      9 C7         11.4980   -0.9423   22.1313 ca         1 S34     -0.154500
     10 N2          7.0218   -0.4853   21.1123 ns         1 S34     -0.460100
     11 C8          6.3459    0.0997   20.0228 ca         1 S34      0.024300
     12 C9          5.1488    0.8159   20.2146 ca         1 S34     -0.239900
     13 C10         4.5458    1.4320   19.0870 ca         1 S34     -0.145500
     14 C11         5.1219    1.2930   17.7978 ca         1 S34      0.371200
     15 N3          6.2345    0.5867   17.6366 nb         1 S34     -0.619000
     16 C12         6.8358    0.0078   18.7279 ca         1 S34      0.343200
     17 H1          8.7510   -1.6990   22.6753 hn         1 S34      0.307500
     18 H3          9.5500    1.2425   23.9171 ha         1 S34      0.148500
     19 H4         11.7806    2.1802   24.4379 ha         1 S34      0.135000
     20 H5         13.8277    1.1552   23.4529 ha         1 S34      0.135000
     21 H6         13.6435   -0.8747   22.0469 ha         1 S34      0.135000
     22 H7         11.4170   -1.8107   21.4725 ha         1 S34      0.148500
     23 H2          6.4831   -1.0244   21.7843 hn         1 S34      0.314500
     24 N4          3.3914    2.0555   19.5490 na         1 S34     -0.011100
     25 H11         4.6950    1.7898   16.9230 h4         1 S34      0.030100
     26 H12         7.7619   -0.5401   18.4880 h4         1 S34      0.065100
     27 C14         4.3038    1.1346   21.3265 cc         1 S34      0.333800
     28 N7          3.2702    1.8936   20.8953 nd         1 S34     -0.495100
     29 HN4         2.8292    2.7469   19.0629 hn         1 S34      0.331700
     30 H14         4.4339    0.8472   22.3769 h4         1 S34      0.050800
@<TRIPOS>BOND
    1    27    28 1
    2    24    28 1
    3    15    16 1
    4    14    15 1
    5    13    14 1
    6    13    24 1
    7    12    13 1
    8    12    27 1
    9    11    12 1
   10    11    16 1
   11    10    11 1
   12     8     9 1
   13     7     8 1
   14     6     7 1
   15     5     6 1
   16     4     5 1
   17     4     9 1
   18     3     4 1
   19     2     3 1
   20     2    10 1
   21     1     2 1
   22    27    30 1
   23    24    29 1
   24    16    26 1
   25    14    25 1
   26    10    23 1
   27     9    22 1
   28     8    21 1
   29     7    20 1
   30     6    19 1
   31     5    18 1
   32     3    17 1
@<TRIPOS>SUBSTRUCTURE
      1 S34               1 ****               0 ****  **** 
