@<TRIPOS>MOLECULE
Cpptraj Generated mol2 file.
   39    41     1     0     0
SMALL
USER_CHARGES


@<TRIPOS>ATOM
      1 O1          9.3461    1.2278   20.9910 o          1 S41     -0.580100
      2 C1          8.8094    0.4749   21.8085 c          1 S41      0.665100
      3 C2          9.4256    0.0463   23.1208 c3         1 S41     -0.153400
      4 C3         10.9508    0.0075   23.0184 c3         1 S41     -0.061700
      5 C4         11.3913   -1.0721   22.0266 c3         1 S41     -0.075400
      6 C5         12.5853   -1.8803   22.5211 c3         1 S41     -0.074900
      7 C6         13.6335   -1.0161   23.2021 c3         1 S41     -0.077400
      8 C7         13.0565   -0.1496   24.3191 c3         1 S41     -0.074900
      9 C8         11.5392   -0.2518   24.4046 c3         1 S41     -0.075400
     10 N1          7.5101    0.0303   21.5798 ns         1 S41     -0.470100
     11 C9          6.7860    0.4189   20.4317 ca         1 S41     -0.028700
     12 C10         5.5379    1.0892   20.5936 ca         1 S41     -0.151300
     13 C11         4.7861    1.3562   19.4365 ca         1 S41      0.292300
     14 C12         5.3402    1.0126   18.1586 ca         1 S41      0.346900
     15 N2          6.5325    0.4536   18.0210 nb         1 S41     -0.635000
     16 C13         7.2489    0.1483   19.1565 ca         1 S41      0.357200
     17 H22         9.0448   -0.9408   23.4731 hc         1 S41      0.074200
     18 H23         9.0910    0.7709   23.8974 hc         1 S41      0.074200
     19 H3         11.3194    1.0055   22.6640 hc         1 S41      0.067700
     20 H42        10.5655   -1.7761   21.7815 hc         1 S41      0.039450
     21 H43        11.6118   -0.6001   21.0511 hc         1 S41      0.039450
     22 H52        13.0511   -2.4183   21.6686 hc         1 S41      0.042200
     23 H53        12.2492   -2.6833   23.2115 hc         1 S41      0.042200
     24 H62        14.4387   -1.6681   23.6026 hc         1 S41      0.043200
     25 H63        14.1396   -0.3801   22.4484 hc         1 S41      0.043200
     26 H72        13.5184   -0.4245   25.2894 hc         1 S41      0.042200
     27 H73        13.3486    0.9101   24.1613 hc         1 S41      0.042200
     28 H82        11.1450    0.4743   25.1452 hc         1 S41      0.039450
     29 H83        11.2212   -1.2401   24.7943 hc         1 S41      0.039450
     30 H1          7.0198   -0.5700   22.2451 hn         1 S41      0.318500
     31 C16         5.0084    1.4983   21.8491 ca         1 S41     -0.091000
     32 N3          3.5291    1.9311   19.4832 nb         1 S41     -0.639000
     33 H12         4.7828    1.2302   17.2381 h4         1 S41      0.042100
     34 H13         8.2154   -0.3443   18.9693 h4         1 S41      0.064100
     35 C14         3.0647    2.2816   20.6741 ca         1 S41      0.408200
     36 C15         3.7880    2.1062   21.8926 ca         1 S41     -0.237300
     37 H14         2.0511    2.7273   20.6763 h4         1 S41      0.027100
     38 H15         3.3384    2.4461   22.8379 ha         1 S41      0.147000
     39 H16         5.5741    1.3227   22.7764 ha         1 S41      0.130000
@<TRIPOS>BOND
    1    35    36 1
    2    32    35 1
    3    31    36 1
    4    15    16 1
    5    14    15 1
    6    13    14 1
    7    13    32 1
    8    12    13 1
    9    12    31 1
   10    11    12 1
   11    11    16 1
   12    10    11 1
   13     8     9 1
   14     7     8 1
   15     6     7 1
   16     5     6 1
   17     4     5 1
   18     4     9 1
   19     3     4 1
   20     2     3 1
   21     2    10 1
   22     1     2 1
   23    36    38 1
   24    35    37 1
   25    31    39 1
   26    16    34 1
   27    14    33 1
   28    10    30 1
   29     9    28 1
   30     9    29 1
   31     8    26 1
   32     8    27 1
   33     7    24 1
   34     7    25 1
   35     6    22 1
   36     6    23 1
   37     5    20 1
   38     5    21 1
   39     4    19 1
   40     3    17 1
   41     3    18 1
@<TRIPOS>SUBSTRUCTURE
      1 S41               1 ****               0 ****  **** 
