@<TRIPOS>MOLECULE
S29
   32    34     1     0     0
SMALL
bcc


@<TRIPOS>ATOM
      1 O1           9.0980     0.7170    20.8630 o          1 S29      -0.605100
      2 C1           8.5440    -0.2000    21.3730 c          1 S29       0.784100
      3 N1           9.1810    -0.9260    22.4450 ns         1 S29      -0.467100
      4 C2          10.4660    -0.4470    22.8510 ca         1 S29       0.062600
      5 C3          10.5000     0.3870    23.9490 ca         1 S29      -0.157500
      6 C4          11.7040     0.9000    24.3650 ca         1 S29      -0.107000
      7 C5          12.8650     0.5840    23.6730 ca         1 S29      -0.149000
      8 C6          12.8230    -0.2500    22.5690 ca         1 S29      -0.107000
      9 C7          11.6120    -0.7630    22.1470 ca         1 S29      -0.157500
     10 N2           7.2370    -0.6260    20.9410 ns         1 S29      -0.484100
     11 C8           6.5590     0.0580    19.8740 ca         1 S29      -0.022700
     12 C9           5.3530     0.6830    20.1520 ca         1 S29      -0.148300
     13 C10          4.7260     1.3390    19.1050 ca         1 S29       0.290300
     14 C11          5.3210     1.3050    17.8490 ca         1 S29       0.351900
     15 N3           6.4720     0.7100    17.6440 nb         1 S29      -0.636000
     16 C12          7.1030     0.0840    18.6020 ca         1 S29       0.369200
     17 H1           8.7450    -1.7250    22.8830 hn         1 S29       0.308500
     18 H3           9.5900     0.6340    24.4760 ha         1 S29       0.149000
     19 H4          11.7470     1.5480    25.2280 ha         1 S29       0.135000
     20 H5          13.8100     0.9930    23.9990 ha         1 S29       0.135000
     21 H6          13.7320    -0.4980    22.0410 ha         1 S29       0.135000
     22 H7          11.5620    -1.4030    21.2780 ha         1 S29       0.149000
     23 H2           6.7930    -1.4130    21.3920 hn         1 S29       0.317500
     24 N4           3.4270     1.8390    19.2860 nb         1 S29      -0.638000
     25 H11          4.8220     1.7820    17.0190 h4         1 S29       0.043100
     26 H12          8.0430    -0.4100    18.4020 h4         1 S29       0.062100
     27 C15          4.8690     0.9230    21.4560 ca         1 S29      -0.092000
     28 H15          5.4410     0.5940    22.3150 ha         1 S29       0.130000
     29 C14          3.7400     1.7450    21.6490 ca         1 S29      -0.234300
     30 H14          3.4820     2.0830    22.6440 ha         1 S29       0.147000
     31 C13          2.9920     2.1960    20.5500 ca         1 S29       0.408200
     32 H13          2.1790     2.9200    20.6260 h4         1 S29       0.028100
@<TRIPOS>BOND
     1     1     2 2   
     2     2     3 1   
     3     2    10 1   
     4     3     4 1   
     5    10    11 1   
     6     4     5 ar  
     7     4     9 ar  
     8     5     6 ar  
     9     9     8 ar  
    10     6     7 ar  
    11     7     8 ar  
    12    11    12 ar  
    13    11    16 ar  
    14    12    13 ar  
    15    16    15 ar  
    16    13    14 ar  
    17    14    15 ar  
    18    17     3 1   
    19    18     5 1   
    20    19     6 1   
    21    20     7 1   
    22    21     8 1   
    23    22     9 1   
    24    23    10 1   
    25    24    13 ar  
    26    25    14 1   
    27    26    16 1   
    28    27    12 ar  
    29    28    27 1   
    30    29    27 ar  
    31    30    29 1   
    32    31    29 ar  
    33    32    31 1   
    34    31    24 ar  
@<TRIPOS>SUBSTRUCTURE
     1 S29         1 TEMP              0 ****  ****    0 ROOT
