SPE_0024
Actelion Java MolfileCreator 2.0

  0  0  0  0  0  0              0 V3000
M  V30 BEGIN CTAB
M  V30 COUNTS 16 17 0 0 0
M  V30 BEGIN ATOM
M  V30 1 O 0.0 0.0 0.0 0
M  V30 2 C -0.0238 1.5287 0.0 0
M  V30 3 N 1.254 2.3051 0.0 0
M  V30 4 N -1.3496 2.3051 0.0 0
M  V30 5 C 2.532 1.5765 0.0 0
M  V30 6 C -2.6753 1.5765 0.0 0
M  V30 7 C 2.5081 0.0955 0.0 0
M  V30 8 C 3.81 2.3529 0.0 0
M  V30 9 C -4.0011 2.3529 0.0 0
M  V30 10 C -2.6992 0.0955 0.0 0
M  V30 11 N 3.7861 -0.633 0.0 0
M  V30 12 C 5.088 1.6124 0.0 0
M  V30 13 C -5.3268 1.6243 0.0 0
M  V30 14 C -4.025 -0.633 0.0 0
M  V30 15 C 5.0641 0.1313 0.0 0
M  V30 16 C -5.3507 0.1433 0.0 0
M  V30 END ATOM
M  V30 BEGIN BOND
M  V30 1 2 1 2
M  V30 2 1 2 3
M  V30 3 1 2 4
M  V30 4 1 3 5
M  V30 5 1 4 6
M  V30 6 2 5 7
M  V30 7 1 5 8
M  V30 8 2 6 9
M  V30 9 1 6 10
M  V30 10 1 7 11
M  V30 11 2 8 12
M  V30 12 1 9 13
M  V30 13 2 10 14
M  V30 14 2 11 15
M  V30 15 2 13 16
M  V30 16 1 12 15
M  V30 17 1 14 16
M  V30 END BOND
M  V30 END CTAB
M  END
>  <Molecule Name>
x0434

>  <Name>
SPE_0024

>  <Name_tmp>
x0434

>  <Smiles>
O=C(Nc1ccccc1)Nc1cnccc1

>  <Residue Name>
S24

$$$$
SPE_0025
Actelion Java MolfileCreator 2.0

  0  0  0  0  0  0              0 V3000
M  V30 BEGIN CTAB
M  V30 COUNTS 17 18 0 0 0
M  V30 BEGIN ATOM
M  V30 1 O 0.0 0.0 0.0 0
M  V30 2 C -0.0361 1.5444 0.0 0
M  V30 3 N 1.2307 2.3287 0.0 0
M  V30 4 N -1.3755 2.3287 0.0 0
M  V30 5 C 2.4976 1.6047 0.0 0
M  V30 6 C -2.7148 1.6047 0.0 0
M  V30 7 C 2.4614 0.1327 0.0 0
M  V30 8 C 3.7646 2.389 0.0 0
M  V30 9 C -4.0541 2.389 0.0 0
M  V30 10 C -2.751 0.1327 0.0 0
M  V30 11 N 3.7284 -0.5912 0.0 0
M  V30 12 C 5.0315 1.653 0.0 0
M  V30 13 C -5.3935 1.6651 0.0 0
M  V30 14 C -4.0903 -0.5912 0.0 0
M  V30 15 C 4.9953 0.1809 0.0 0
M  V30 16 N 6.3105 2.4252 0.0 0
M  V30 17 C -5.4297 0.193 0.0 0
M  V30 END ATOM
M  V30 BEGIN BOND
M  V30 1 2 1 2
M  V30 2 1 2 3
M  V30 3 1 2 4
M  V30 4 1 3 5
M  V30 5 1 4 6
M  V30 6 2 5 7
M  V30 7 1 5 8
M  V30 8 2 6 9
M  V30 9 1 6 10
M  V30 10 1 7 11
M  V30 11 2 8 12
M  V30 12 1 9 13
M  V30 13 2 10 14
M  V30 14 2 11 15
M  V30 15 1 12 16
M  V30 16 2 13 17
M  V30 17 1 12 15
M  V30 18 1 14 17
M  V30 END BOND
M  V30 END CTAB
M  END
>  <Molecule Name>


>  <Name>
SPE_0025

>  <Name_tmp>
x0434_01

>  <Smiles>
Nc1cc(NC(Nc2ccccc2)=O)cnc1

>  <Residue Name>
S25

$$$$
SPE_0026
Actelion Java MolfileCreator 2.0

  0  0  0  0  0  0              0 V3000
M  V30 BEGIN CTAB
M  V30 COUNTS 18 19 0 0 0
M  V30 BEGIN ATOM
M  V30 1 O 0.0 0.0 0.0 0
M  V30 2 C -0.0362 1.5481 0.0 0
M  V30 3 N 1.2336 2.3221 0.0 0
M  V30 4 N -1.3787 2.3221 0.0 0
M  V30 5 C 2.5035 1.5964 0.0 0
M  V30 6 C -2.7212 1.5964 0.0 0
M  V30 7 C 2.4672 0.1209 0.0 0
M  V30 8 C 3.7735 2.3705 0.0 0
M  V30 9 C -4.0637 2.3705 0.0 0
M  V30 10 C -2.7575 0.1209 0.0 0
M  V30 11 N 3.7372 -0.6047 0.0 0
M  V30 12 C 5.0434 1.6327 0.0 0
M  V30 13 C -5.4062 1.6448 0.0 0
M  V30 14 C -4.1 -0.6047 0.0 0
M  V30 15 C 5.0071 0.1693 0.0 0
M  V30 16 N 6.3254 2.4068 0.0 0
M  V30 17 C -5.4425 0.1693 0.0 0
M  V30 18 C 7.6074 1.669 0.0 0
M  V30 END ATOM
M  V30 BEGIN BOND
M  V30 1 2 1 2
M  V30 2 1 2 3
M  V30 3 1 2 4
M  V30 4 1 3 5
M  V30 5 1 4 6
M  V30 6 2 5 7
M  V30 7 1 5 8
M  V30 8 2 6 9
M  V30 9 1 6 10
M  V30 10 1 7 11
M  V30 11 2 8 12
M  V30 12 1 9 13
M  V30 13 2 10 14
M  V30 14 2 11 15
M  V30 15 1 12 16
M  V30 16 2 13 17
M  V30 17 1 16 18
M  V30 18 1 12 15
M  V30 19 1 14 17
M  V30 END BOND
M  V30 END CTAB
M  END
>  <Molecule Name>


>  <Name>
SPE_0026

>  <Name_tmp>
x0434_02

>  <Smiles>
CNc1cc(NC(Nc2ccccc2)=O)cnc1

>  <Residue Name>
S26

$$$$
SPE_0027
Actelion Java MolfileCreator 2.0

  0  0  0  0  0  0              0 V3000
M  V30 BEGIN CTAB
M  V30 COUNTS 19 20 0 0 0
M  V30 BEGIN ATOM
M  V30 1 O 0.0 0.0 0.0 0
M  V30 2 C -0.0361 1.544 0.0 0
M  V30 3 N 1.2303 2.3281 0.0 0
M  V30 4 N -1.3751 2.3281 0.0 0
M  V30 5 C 2.4969 1.6043 0.0 0
M  V30 6 C -2.7141 1.6043 0.0 0
M  V30 7 C 2.4607 0.1326 0.0 0
M  V30 8 C 3.7635 2.3884 0.0 0
M  V30 9 C -4.053 2.3884 0.0 0
M  V30 10 C -2.7503 0.1326 0.0 0
M  V30 11 N 3.7273 -0.591 0.0 0
M  V30 12 C 5.0301 1.6525 0.0 0
M  V30 13 C -5.392 1.6646 0.0 0
M  V30 14 C -4.0892 -0.591 0.0 0
M  V30 15 C 4.9939 0.1809 0.0 0
M  V30 16 N 6.3088 2.4246 0.0 0
M  V30 17 C -5.4282 0.193 0.0 0
M  V30 18 C 7.5874 1.6887 0.0 0
M  V30 19 C 6.2846 3.9565 0.0 0
M  V30 END ATOM
M  V30 BEGIN BOND
M  V30 1 2 1 2
M  V30 2 1 2 3
M  V30 3 1 2 4
M  V30 4 1 3 5
M  V30 5 1 4 6
M  V30 6 2 5 7
M  V30 7 1 5 8
M  V30 8 2 6 9
M  V30 9 1 6 10
M  V30 10 1 7 11
M  V30 11 2 8 12
M  V30 12 1 9 13
M  V30 13 2 10 14
M  V30 14 2 11 15
M  V30 15 1 12 16
M  V30 16 2 13 17
M  V30 17 1 16 18
M  V30 18 1 16 19
M  V30 19 1 12 15
M  V30 20 1 14 17
M  V30 END BOND
M  V30 END CTAB
M  END
>  <Molecule Name>


>  <Name>
SPE_0027

>  <Name_tmp>
x0434_03

>  <Smiles>
CN(C)c1cc(NC(Nc2ccccc2)=O)cnc1

>  <Residue Name>
S27

$$$$
SPE_0028
Actelion Java MolfileCreator 2.0

  0  0  0  0  0  0              0 V3000
M  V30 BEGIN CTAB
M  V30 COUNTS 20 22 0 0 0
M  V30 BEGIN ATOM
M  V30 1 O 0.0 0.0 0.0 0
M  V30 2 C -0.0488 1.5626 0.0 0
M  V30 3 N 1.2086 2.344 0.0 0
M  V30 4 N -1.4039 2.344 0.0 0
M  V30 5 C 2.4661 1.6237 0.0 0
M  V30 6 C -2.7591 1.6237 0.0 0
M  V30 7 C 3.7235 2.405 0.0 0
M  V30 8 C 2.4172 0.1587 0.0 0
M  V30 9 C -4.1142 2.405 0.0 0
M  V30 10 C -2.8079 0.1587 0.0 0
M  V30 11 C 4.981 1.6725 0.0 0
M  V30 12 C 3.6869 3.9433 0.0 0
M  V30 13 N 3.6747 -0.5615 0.0 0
M  V30 14 C -5.4694 1.6847 0.0 0
M  V30 15 C -4.1631 -0.5615 0.0 0
M  V30 16 N 6.2385 2.4539 0.0 0
M  V30 17 C 4.9322 0.2197 0.0 0
M  V30 18 N 4.9444 4.7246 0.0 0
M  V30 19 C -5.5182 0.2197 0.0 0
M  V30 20 C 6.2019 3.9921 0.0 0
M  V30 END ATOM
M  V30 BEGIN BOND
M  V30 1 2 1 2
M  V30 2 1 2 3
M  V30 3 1 2 4
M  V30 4 1 3 5
M  V30 5 1 4 6
M  V30 6 1 5 7
M  V30 7 2 5 8
M  V30 8 2 6 9
M  V30 9 1 6 10
M  V30 10 1 7 11
M  V30 11 2 7 12
M  V30 12 1 8 13
M  V30 13 1 9 14
M  V30 14 2 10 15
M  V30 15 2 11 16
M  V30 16 1 11 17
M  V30 17 1 12 18
M  V30 18 2 14 19
M  V30 19 1 16 20
M  V30 20 2 13 17
M  V30 21 1 15 19
M  V30 22 2 18 20
M  V30 END BOND
M  V30 END CTAB
M  END
>  <Molecule Name>


>  <Name>
SPE_0028

>  <Name_tmp>
x0434_04

>  <Smiles>
O=C(Nc1ccccc1)NC1=CN=CN2NC=CC=C12

>  <Residue Name>
S28

$$$$
SPE_0029
Actelion Java MolfileCreator 2.0

  0  0  0  0  0  0              0 V3000
M  V30 BEGIN CTAB
M  V30 COUNTS 20 22 0 0 0
M  V30 BEGIN ATOM
M  V30 1 O 0.0 0.0 0.0 0
M  V30 2 C -0.0362 1.5456 0.0 0
M  V30 3 N 1.2317 2.3305 0.0 0
M  V30 4 N -1.3766 2.3305 0.0 0
M  V30 5 C 2.4996 1.606 0.0 0
M  V30 6 C -2.717 1.606 0.0 0
M  V30 7 C 3.7675 2.3909 0.0 0
M  V30 8 C 2.4634 0.1328 0.0 0
M  V30 9 C -4.0573 2.3909 0.0 0
M  V30 10 C -2.7532 0.1328 0.0 0
M  V30 11 C 5.0355 1.6543 0.0 0
M  V30 12 C 3.7434 3.9124 0.0 0
M  V30 13 N 3.7313 -0.5917 0.0 0
M  V30 14 C -5.3977 1.6664 0.0 0
M  V30 15 C -4.0936 -0.5917 0.0 0
M  V30 16 N 6.3034 2.4271 0.0 0
M  V30 17 C 4.9992 0.1932 0.0 0
M  V30 18 C 5.0113 4.6853 0.0 0
M  V30 19 C -5.434 0.1932 0.0 0
M  V30 20 C 6.2793 3.9487 0.0 0
M  V30 END ATOM
M  V30 BEGIN BOND
M  V30 1 2 1 2
M  V30 2 1 2 3
M  V30 3 1 2 4
M  V30 4 1 3 5
M  V30 5 1 4 6
M  V30 6 1 5 7
M  V30 7 2 5 8
M  V30 8 2 6 9
M  V30 9 1 6 10
M  V30 10 1 7 11
M  V30 11 2 7 12
M  V30 12 1 8 13
M  V30 13 1 9 14
M  V30 14 2 10 15
M  V30 15 2 11 16
M  V30 16 1 11 17
M  V30 17 1 12 18
M  V30 18 2 14 19
M  V30 19 1 16 20
M  V30 20 2 13 17
M  V30 21 1 15 19
M  V30 22 2 18 20
M  V30 END BOND
M  V30 END CTAB
M  END
>  <Molecule Name>


>  <Name>
SPE_0029

>  <Name_tmp>
x0434_05

>  <Smiles>
O=C(Nc1ccccc1)Nc1cncc2ncccc12

>  <Residue Name>
S29

$$$$
SPE_0030
Actelion Java MolfileCreator 2.0

  0  0  0  0  0  0              0 V3000
M  V30 BEGIN CTAB
M  V30 COUNTS 19 21 0 0 0
M  V30 BEGIN ATOM
M  V30 1 O 0.0 0.0 0.0 0
M  V30 2 C -0.0362 1.5454 0.0 0
M  V30 3 N 1.2315 2.3302 0.0 0
M  V30 4 N -1.3764 2.3302 0.0 0
M  V30 5 C 2.4993 1.6058 0.0 0
M  V30 6 C -2.7166 1.6058 0.0 0
M  V30 7 C 3.767 2.3906 0.0 0
M  V30 8 C 2.463 0.1328 0.0 0
M  V30 9 C -4.0568 2.3906 0.0 0
M  V30 10 C -2.7528 0.1328 0.0 0
M  V30 11 C 5.0348 1.6541 0.0 0
M  V30 12 C 4.0568 3.8757 0.0 0
M  V30 13 N 3.7308 -0.5916 0.0 0
M  V30 14 C -5.397 1.6662 0.0 0
M  V30 15 C -4.093 -0.5916 0.0 0
M  V30 16 N 6.1215 2.6804 0.0 0
M  V30 17 C 4.9986 0.1931 0.0 0
M  V30 18 C 5.5178 4.0568 0.0 0
M  V30 19 C -5.4333 0.1931 0.0 0
M  V30 END ATOM
M  V30 BEGIN BOND
M  V30 1 2 1 2
M  V30 2 1 2 3
M  V30 3 1 2 4
M  V30 4 1 3 5
M  V30 5 1 4 6
M  V30 6 2 5 7
M  V30 7 1 5 8
M  V30 8 2 6 9
M  V30 9 1 6 10
M  V30 10 1 7 11
M  V30 11 1 7 12
M  V30 12 2 8 13
M  V30 13 1 9 14
M  V30 14 2 10 15
M  V30 15 1 11 16
M  V30 16 2 11 17
M  V30 17 2 12 18
M  V30 18 2 14 19
M  V30 19 1 13 17
M  V30 20 1 15 19
M  V30 21 1 16 18
M  V30 END BOND
M  V30 END CTAB
M  END
>  <Molecule Name>


>  <Name>
SPE_0030

>  <Name_tmp>
x0434_06

>  <Smiles>
O=C(Nc1ccccc1)Nc1c(cc[nH]2)c2cnc1

>  <Residue Name>
S30

$$$$
SPE_0031
Actelion Java MolfileCreator 2.0

  0  0  0  0  0  0              0 V3000
M  V30 BEGIN CTAB
M  V30 COUNTS 19 21 0 0 0
M  V30 BEGIN ATOM
M  V30 1 O 0.0 0.0 0.0 0
M  V30 2 C -0.0362 1.5454 0.0 0
M  V30 3 N 1.2315 2.3302 0.0 0
M  V30 4 N -1.3764 2.3302 0.0 0
M  V30 5 C 2.4993 1.6058 0.0 0
M  V30 6 C -2.7166 1.6058 0.0 0
M  V30 7 C 3.767 2.3906 0.0 0
M  V30 8 C 2.463 0.1328 0.0 0
M  V30 9 C -4.0568 2.3906 0.0 0
M  V30 10 C -2.7528 0.1328 0.0 0
M  V30 11 N 5.0348 1.6541 0.0 0
M  V30 12 C 4.0568 3.8757 0.0 0
M  V30 13 N 3.7308 -0.5916 0.0 0
M  V30 14 C -5.397 1.6662 0.0 0
M  V30 15 C -4.093 -0.5916 0.0 0
M  V30 16 N 6.1215 2.6804 0.0 0
M  V30 17 C 4.9986 0.1931 0.0 0
M  V30 18 C 5.5178 4.0568 0.0 0
M  V30 19 C -5.4333 0.1931 0.0 0
M  V30 END ATOM
M  V30 BEGIN BOND
M  V30 1 2 1 2
M  V30 2 1 2 3
M  V30 3 1 2 4
M  V30 4 1 3 5
M  V30 5 1 4 6
M  V30 6 1 5 7
M  V30 7 2 5 8
M  V30 8 2 6 9
M  V30 9 1 6 10
M  V30 10 1 7 11
M  V30 11 2 7 12
M  V30 12 1 8 13
M  V30 13 1 9 14
M  V30 14 2 10 15
M  V30 15 1 11 16
M  V30 16 1 11 17
M  V30 17 1 12 18
M  V30 18 2 14 19
M  V30 19 2 13 17
M  V30 20 1 15 19
M  V30 21 2 16 18
M  V30 END BOND
M  V30 END CTAB
M  END
>  <Molecule Name>


>  <Name>
SPE_0031

>  <Name_tmp>
x0434_07

>  <Smiles>
O=C(Nc1ccccc1)Nc1cncn2nccc12

>  <Residue Name>
S31

$$$$
SPE_0032
Actelion Java MolfileCreator 2.0

  0  0  0  0  0  0              0 V3000
M  V30 BEGIN CTAB
M  V30 COUNTS 19 21 0 0 0
M  V30 BEGIN ATOM
M  V30 1 O 0.0 0.0 0.0 0
M  V30 2 C -0.0362 1.5454 0.0 0
M  V30 3 N 1.2315 2.3302 0.0 0
M  V30 4 N -1.3764 2.3302 0.0 0
M  V30 5 C 2.4993 1.6058 0.0 0
M  V30 6 C -2.7166 1.6058 0.0 0
M  V30 7 N 3.767 2.3906 0.0 0
M  V30 8 C 2.463 0.1328 0.0 0
M  V30 9 C -4.0568 2.3906 0.0 0
M  V30 10 C -2.7528 0.1328 0.0 0
M  V30 11 C 5.0348 1.6541 0.0 0
M  V30 12 C 4.0568 3.8757 0.0 0
M  V30 13 N 3.7308 -0.5916 0.0 0
M  V30 14 C -5.397 1.6662 0.0 0
M  V30 15 C -4.093 -0.5916 0.0 0
M  V30 16 N 6.1215 2.6804 0.0 0
M  V30 17 C 4.9986 0.1931 0.0 0
M  V30 18 C 5.5178 4.0568 0.0 0
M  V30 19 C -5.4333 0.1931 0.0 0
M  V30 END ATOM
M  V30 BEGIN BOND
M  V30 1 2 1 2
M  V30 2 1 2 3
M  V30 3 1 2 4
M  V30 4 1 3 5
M  V30 5 1 4 6
M  V30 6 1 5 7
M  V30 7 2 5 8
M  V30 8 2 6 9
M  V30 9 1 6 10
M  V30 10 1 7 11
M  V30 11 1 7 12
M  V30 12 1 8 13
M  V30 13 1 9 14
M  V30 14 2 10 15
M  V30 15 2 11 16
M  V30 16 1 11 17
M  V30 17 2 12 18
M  V30 18 2 14 19
M  V30 19 2 13 17
M  V30 20 1 15 19
M  V30 21 1 16 18
M  V30 END BOND
M  V30 END CTAB
M  END
>  <Molecule Name>


>  <Name>
SPE_0032

>  <Name_tmp>
x0434_08

>  <Smiles>
O=C(Nc1ccccc1)Nc1cncc2nccn12

>  <Residue Name>
S32

$$$$
SPE_0033
Actelion Java MolfileCreator 2.0

  0  0  0  0  0  0              0 V3000
M  V30 BEGIN CTAB
M  V30 COUNTS 19 21 0 0 0
M  V30 BEGIN ATOM
M  V30 1 O 0.0 0.0 0.0 0
M  V30 2 C -0.0362 1.5454 0.0 0
M  V30 3 N 1.2315 2.3302 0.0 0
M  V30 4 N -1.3764 2.3302 0.0 0
M  V30 5 C 2.4993 1.6058 0.0 0
M  V30 6 C -2.7166 1.6058 0.0 0
M  V30 7 C 3.767 2.3906 0.0 0
M  V30 8 C 2.463 0.1328 0.0 0
M  V30 9 C -4.0568 2.3906 0.0 0
M  V30 10 C -2.7528 0.1328 0.0 0
M  V30 11 N 4.0568 3.8757 0.0 0
M  V30 12 C 5.0348 1.6541 0.0 0
M  V30 13 N 3.7308 -0.5916 0.0 0
M  V30 14 C -5.397 1.6662 0.0 0
M  V30 15 C -4.093 -0.5916 0.0 0
M  V30 16 C 5.5178 4.0568 0.0 0
M  V30 17 N 6.1215 2.6804 0.0 0
M  V30 18 C 4.9986 0.1931 0.0 0
M  V30 19 C -5.4333 0.1931 0.0 0
M  V30 END ATOM
M  V30 BEGIN BOND
M  V30 1 2 1 2
M  V30 2 1 2 3
M  V30 3 1 2 4
M  V30 4 1 3 5
M  V30 5 1 4 6
M  V30 6 2 5 7
M  V30 7 1 5 8
M  V30 8 2 6 9
M  V30 9 1 6 10
M  V30 10 1 7 11
M  V30 11 1 7 12
M  V30 12 2 8 13
M  V30 13 1 9 14
M  V30 14 2 10 15
M  V30 15 2 11 16
M  V30 16 1 12 17
M  V30 17 2 12 18
M  V30 18 2 14 19
M  V30 19 1 13 18
M  V30 20 1 15 19
M  V30 21 1 16 17
M  V30 END BOND
M  V30 END CTAB
M  END
>  <Molecule Name>


>  <Name>
SPE_0033

>  <Name_tmp>
x0434_09

>  <Smiles>
O=C(Nc1ccccc1)Nc1c2nc[nH]c2cnc1

>  <Residue Name>
S33

$$$$
SPE_0034
Actelion Java MolfileCreator 2.0

  0  0  0  0  0  0              0 V3000
M  V30 BEGIN CTAB
M  V30 COUNTS 19 21 0 0 0
M  V30 BEGIN ATOM
M  V30 1 O 0.0 0.0 0.0 0
M  V30 2 C -0.0362 1.5454 0.0 0
M  V30 3 N 1.2315 2.3302 0.0 0
M  V30 4 N -1.3764 2.3302 0.0 0
M  V30 5 C 2.4993 1.6058 0.0 0
M  V30 6 C -2.7166 1.6058 0.0 0
M  V30 7 C 3.767 2.3906 0.0 0
M  V30 8 C 2.463 0.1328 0.0 0
M  V30 9 C -4.0568 2.3906 0.0 0
M  V30 10 C -2.7528 0.1328 0.0 0
M  V30 11 C 5.0348 1.6541 0.0 0
M  V30 12 C 4.0568 3.8757 0.0 0
M  V30 13 N 3.7308 -0.5916 0.0 0
M  V30 14 C -5.397 1.6662 0.0 0
M  V30 15 C -4.093 -0.5916 0.0 0
M  V30 16 N 6.1215 2.6804 0.0 0
M  V30 17 C 4.9986 0.1931 0.0 0
M  V30 18 N 5.5178 4.0568 0.0 0
M  V30 19 C -5.4333 0.1931 0.0 0
M  V30 END ATOM
M  V30 BEGIN BOND
M  V30 1 2 1 2
M  V30 2 1 2 3
M  V30 3 1 2 4
M  V30 4 1 3 5
M  V30 5 1 4 6
M  V30 6 2 5 7
M  V30 7 1 5 8
M  V30 8 2 6 9
M  V30 9 1 6 10
M  V30 10 1 7 11
M  V30 11 1 7 12
M  V30 12 2 8 13
M  V30 13 1 9 14
M  V30 14 2 10 15
M  V30 15 1 11 16
M  V30 16 2 11 17
M  V30 17 2 12 18
M  V30 18 2 14 19
M  V30 19 1 13 17
M  V30 20 1 15 19
M  V30 21 1 16 18
M  V30 END BOND
M  V30 END CTAB
M  END
>  <Molecule Name>


>  <Name>
SPE_0034

>  <Name_tmp>
x0434_10

>  <Smiles>
O=C(Nc1ccccc1)Nc1c(cn[nH]2)c2cnc1

>  <Residue Name>
S34

$$$$
SPE_0035
Actelion Java MolfileCreator 2.0

  0  0  0  0  0  0              0 V3000
M  V30 BEGIN CTAB
M  V30 COUNTS 20 22 0 0 0
M  V30 BEGIN ATOM
M  V30 1 O 0.0 0.0 0.0 0
M  V30 2 C -0.0488 1.5626 0.0 0
M  V30 3 N 1.2086 2.344 0.0 0
M  V30 4 N -1.4039 2.344 0.0 0
M  V30 5 C 2.4661 1.6237 0.0 0
M  V30 6 C -2.7591 1.6237 0.0 0
M  V30 7 C 3.7235 2.405 0.0 0
M  V30 8 C 2.4172 0.1587 0.0 0
M  V30 9 C -4.1142 2.405 0.0 0
M  V30 10 C -2.8079 0.1587 0.0 0
M  V30 11 N 3.6869 3.9433 0.0 0
M  V30 12 C 4.981 1.6725 0.0 0
M  V30 13 N 3.6747 -0.5615 0.0 0
M  V30 14 C -5.4694 1.6847 0.0 0
M  V30 15 C -4.1631 -0.5615 0.0 0
M  V30 16 C 4.9444 4.7246 0.0 0
M  V30 17 N 6.2385 2.4539 0.0 0
M  V30 18 C 4.9322 0.2197 0.0 0
M  V30 19 C -5.5182 0.2197 0.0 0
M  V30 20 C 6.2019 3.9921 0.0 0
M  V30 END ATOM
M  V30 BEGIN BOND
M  V30 1 2 1 2
M  V30 2 1 2 3
M  V30 3 1 2 4
M  V30 4 1 3 5
M  V30 5 1 4 6
M  V30 6 1 5 7
M  V30 7 2 5 8
M  V30 8 2 6 9
M  V30 9 1 6 10
M  V30 10 2 7 11
M  V30 11 1 7 12
M  V30 12 1 8 13
M  V30 13 1 9 14
M  V30 14 2 10 15
M  V30 15 1 11 16
M  V30 16 2 12 17
M  V30 17 1 12 18
M  V30 18 2 14 19
M  V30 19 2 16 20
M  V30 20 2 13 18
M  V30 21 1 15 19
M  V30 22 1 17 20
M  V30 END BOND
M  V30 END CTAB
M  END
>  <Molecule Name>


>  <Name>
SPE_0035

>  <Name_tmp>
x0434_11

>  <Smiles>
O=C(Nc1ccccc1)NC1=CNC=C2N=CC=CN12

>  <Residue Name>
S35

$$$$
SPE_0036
Actelion Java MolfileCreator 2.0

  0  0  0  0  0  0              0 V3000
M  V30 BEGIN CTAB
M  V30 COUNTS 16 17 0 0 0
M  V30 BEGIN ATOM
M  V30 1 O 0.0 0.0 0.0 0
M  V30 2 C -0.0238 1.5287 0.0 0
M  V30 3 N 1.254 2.3051 0.0 0
M  V30 4 C -1.3496 2.3051 0.0 0
M  V30 5 C 2.532 1.5765 0.0 0
M  V30 6 C -2.6753 1.5765 0.0 0
M  V30 7 C 2.5081 0.0955 0.0 0
M  V30 8 C 3.81 2.3529 0.0 0
M  V30 9 C -4.0011 2.3529 0.0 0
M  V30 10 C -2.6992 0.0955 0.0 0
M  V30 11 N 3.7861 -0.633 0.0 0
M  V30 12 C 5.088 1.6124 0.0 0
M  V30 13 C -5.3268 1.6243 0.0 0
M  V30 14 C -4.025 -0.633 0.0 0
M  V30 15 C 5.0641 0.1313 0.0 0
M  V30 16 C -5.3507 0.1433 0.0 0
M  V30 END ATOM
M  V30 BEGIN BOND
M  V30 1 2 1 2
M  V30 2 1 2 3
M  V30 3 1 2 4
M  V30 4 1 3 5
M  V30 5 1 4 6
M  V30 6 2 5 7
M  V30 7 1 5 8
M  V30 8 1 6 9
M  V30 9 1 6 10
M  V30 10 1 7 11
M  V30 11 2 8 12
M  V30 12 1 9 13
M  V30 13 1 10 14
M  V30 14 2 11 15
M  V30 15 1 13 16
M  V30 16 1 12 15
M  V30 17 1 14 16
M  V30 END BOND
M  V30 END CTAB
M  END
>  <Molecule Name>
x0678

>  <Name>
SPE_0036

>  <Name_tmp>
x0678

>  <Smiles>
O=C(CC1CCCCC1)Nc1cnccc1

>  <Residue Name>
S36

$$$$
SPE_0037
Actelion Java MolfileCreator 2.0

  0  0  0  0  0  0              0 V3000
M  V30 BEGIN CTAB
M  V30 COUNTS 17 18 0 0 0
M  V30 BEGIN ATOM
M  V30 1 O 0.0 0.0 0.0 0
M  V30 2 C -0.0361 1.5444 0.0 0
M  V30 3 N 1.2307 2.3287 0.0 0
M  V30 4 C -1.3755 2.3287 0.0 0
M  V30 5 C 2.4976 1.6047 0.0 0
M  V30 6 C -2.7148 1.6047 0.0 0
M  V30 7 C 2.4614 0.1327 0.0 0
M  V30 8 C 3.7646 2.389 0.0 0
M  V30 9 C -4.0541 2.389 0.0 0
M  V30 10 C -2.751 0.1327 0.0 0
M  V30 11 N 3.7284 -0.5912 0.0 0
M  V30 12 C 5.0315 1.653 0.0 0
M  V30 13 C -5.3935 1.6651 0.0 0
M  V30 14 C -4.0903 -0.5912 0.0 0
M  V30 15 C 4.9953 0.1809 0.0 0
M  V30 16 N 6.3105 2.4252 0.0 0
M  V30 17 C -5.4297 0.193 0.0 0
M  V30 END ATOM
M  V30 BEGIN BOND
M  V30 1 2 1 2
M  V30 2 1 2 3
M  V30 3 1 2 4
M  V30 4 1 3 5
M  V30 5 1 4 6
M  V30 6 2 5 7
M  V30 7 1 5 8
M  V30 8 1 6 9
M  V30 9 1 6 10
M  V30 10 1 7 11
M  V30 11 2 8 12
M  V30 12 1 9 13
M  V30 13 1 10 14
M  V30 14 2 11 15
M  V30 15 1 12 16
M  V30 16 1 13 17
M  V30 17 1 12 15
M  V30 18 1 14 17
M  V30 END BOND
M  V30 END CTAB
M  END
>  <Molecule Name>


>  <Name>
SPE_0037

>  <Name_tmp>
x0678_01

>  <Smiles>
Nc1cc(NC(CC2CCCCC2)=O)cnc1

>  <Residue Name>
S37

$$$$
SPE_0038
Actelion Java MolfileCreator 2.0

  0  0  0  0  0  0              0 V3000
M  V30 BEGIN CTAB
M  V30 COUNTS 18 19 0 0 0
M  V30 BEGIN ATOM
M  V30 1 O 0.0 0.0 0.0 0
M  V30 2 C -0.0362 1.5481 0.0 0
M  V30 3 N 1.2336 2.3221 0.0 0
M  V30 4 C -1.3787 2.3221 0.0 0
M  V30 5 C 2.5035 1.5964 0.0 0
M  V30 6 C -2.7212 1.5964 0.0 0
M  V30 7 C 2.4672 0.1209 0.0 0
M  V30 8 C 3.7735 2.3705 0.0 0
M  V30 9 C -4.0637 2.3705 0.0 0
M  V30 10 C -2.7575 0.1209 0.0 0
M  V30 11 N 3.7372 -0.6047 0.0 0
M  V30 12 C 5.0434 1.6327 0.0 0
M  V30 13 C -5.4062 1.6448 0.0 0
M  V30 14 C -4.1 -0.6047 0.0 0
M  V30 15 C 5.0071 0.1693 0.0 0
M  V30 16 N 6.3254 2.4068 0.0 0
M  V30 17 C -5.4425 0.1693 0.0 0
M  V30 18 C 7.6074 1.669 0.0 0
M  V30 END ATOM
M  V30 BEGIN BOND
M  V30 1 2 1 2
M  V30 2 1 2 3
M  V30 3 1 2 4
M  V30 4 1 3 5
M  V30 5 1 4 6
M  V30 6 2 5 7
M  V30 7 1 5 8
M  V30 8 1 6 9
M  V30 9 1 6 10
M  V30 10 1 7 11
M  V30 11 2 8 12
M  V30 12 1 9 13
M  V30 13 1 10 14
M  V30 14 2 11 15
M  V30 15 1 12 16
M  V30 16 1 13 17
M  V30 17 1 16 18
M  V30 18 1 12 15
M  V30 19 1 14 17
M  V30 END BOND
M  V30 END CTAB
M  END
>  <Molecule Name>


>  <Name>
SPE_0038

>  <Name_tmp>
x0678_02

>  <Smiles>
CNc1cc(NC(CC2CCCCC2)=O)cnc1

>  <Residue Name>
S38

$$$$
SPE_0039
Actelion Java MolfileCreator 2.0

  0  0  0  0  0  0              0 V3000
M  V30 BEGIN CTAB
M  V30 COUNTS 19 20 0 0 0
M  V30 BEGIN ATOM
M  V30 1 O 0.0 0.0 0.0 0
M  V30 2 C -0.0361 1.544 0.0 0
M  V30 3 N 1.2303 2.3281 0.0 0
M  V30 4 C -1.3751 2.3281 0.0 0
M  V30 5 C 2.4969 1.6043 0.0 0
M  V30 6 C -2.7141 1.6043 0.0 0
M  V30 7 C 2.4607 0.1326 0.0 0
M  V30 8 C 3.7635 2.3884 0.0 0
M  V30 9 C -4.053 2.3884 0.0 0
M  V30 10 C -2.7503 0.1326 0.0 0
M  V30 11 N 3.7273 -0.591 0.0 0
M  V30 12 C 5.0301 1.6525 0.0 0
M  V30 13 C -5.392 1.6646 0.0 0
M  V30 14 C -4.0892 -0.591 0.0 0
M  V30 15 C 4.9939 0.1809 0.0 0
M  V30 16 N 6.3088 2.4246 0.0 0
M  V30 17 C -5.4282 0.193 0.0 0
M  V30 18 C 7.5874 1.6887 0.0 0
M  V30 19 C 6.2846 3.9565 0.0 0
M  V30 END ATOM
M  V30 BEGIN BOND
M  V30 1 2 1 2
M  V30 2 1 2 3
M  V30 3 1 2 4
M  V30 4 1 3 5
M  V30 5 1 4 6
M  V30 6 2 5 7
M  V30 7 1 5 8
M  V30 8 1 6 9
M  V30 9 1 6 10
M  V30 10 1 7 11
M  V30 11 2 8 12
M  V30 12 1 9 13
M  V30 13 1 10 14
M  V30 14 2 11 15
M  V30 15 1 12 16
M  V30 16 1 13 17
M  V30 17 1 16 18
M  V30 18 1 16 19
M  V30 19 1 12 15
M  V30 20 1 14 17
M  V30 END BOND
M  V30 END CTAB
M  END
>  <Molecule Name>


>  <Name>
SPE_0039

>  <Name_tmp>
x0678_03

>  <Smiles>
CN(C)c1cc(NC(CC2CCCCC2)=O)cnc1

>  <Residue Name>
S39

$$$$
SPE_0040
Actelion Java MolfileCreator 2.0

  0  0  0  0  0  0              0 V3000
M  V30 BEGIN CTAB
M  V30 COUNTS 20 22 0 0 0
M  V30 BEGIN ATOM
M  V30 1 O 0.0 0.0 0.0 0
M  V30 2 C -0.0488 1.5626 0.0 0
M  V30 3 N 1.2086 2.344 0.0 0
M  V30 4 C -1.4039 2.344 0.0 0
M  V30 5 C 2.4661 1.6237 0.0 0
M  V30 6 C -2.7591 1.6237 0.0 0
M  V30 7 C 3.7235 2.405 0.0 0
M  V30 8 C 2.4172 0.1587 0.0 0
M  V30 9 C -4.1142 2.405 0.0 0
M  V30 10 C -2.8079 0.1587 0.0 0
M  V30 11 C 4.981 1.6725 0.0 0
M  V30 12 C 3.6869 3.9433 0.0 0
M  V30 13 N 3.6747 -0.5615 0.0 0
M  V30 14 C -5.4694 1.6847 0.0 0
M  V30 15 C -4.1631 -0.5615 0.0 0
M  V30 16 N 6.2385 2.4539 0.0 0
M  V30 17 C 4.9322 0.2197 0.0 0
M  V30 18 N 4.9444 4.7246 0.0 0
M  V30 19 C -5.5182 0.2197 0.0 0
M  V30 20 C 6.2019 3.9921 0.0 0
M  V30 END ATOM
M  V30 BEGIN BOND
M  V30 1 2 1 2
M  V30 2 1 2 3
M  V30 3 1 2 4
M  V30 4 1 3 5
M  V30 5 1 4 6
M  V30 6 1 5 7
M  V30 7 2 5 8
M  V30 8 1 6 9
M  V30 9 1 6 10
M  V30 10 1 7 11
M  V30 11 2 7 12
M  V30 12 1 8 13
M  V30 13 1 9 14
M  V30 14 1 10 15
M  V30 15 2 11 16
M  V30 16 1 11 17
M  V30 17 1 12 18
M  V30 18 1 14 19
M  V30 19 1 16 20
M  V30 20 2 13 17
M  V30 21 1 15 19
M  V30 22 2 18 20
M  V30 END BOND
M  V30 END CTAB
M  END
>  <Molecule Name>


>  <Name>
SPE_0040

>  <Name_tmp>
x0678_04

>  <Smiles>
O=C(CC1CCCCC1)NC1=CN=CN2NC=CC=C12

>  <Residue Name>
S40

$$$$
SPE_0041
Actelion Java MolfileCreator 2.0

  0  0  0  0  0  0              0 V3000
M  V30 BEGIN CTAB
M  V30 COUNTS 20 22 0 0 0
M  V30 BEGIN ATOM
M  V30 1 O 0.0 0.0 0.0 0
M  V30 2 C -0.0362 1.5456 0.0 0
M  V30 3 N 1.2317 2.3305 0.0 0
M  V30 4 C -1.3766 2.3305 0.0 0
M  V30 5 C 2.4996 1.606 0.0 0
M  V30 6 C -2.717 1.606 0.0 0
M  V30 7 C 3.7675 2.3909 0.0 0
M  V30 8 C 2.4634 0.1328 0.0 0
M  V30 9 C -4.0573 2.3909 0.0 0
M  V30 10 C -2.7532 0.1328 0.0 0
M  V30 11 C 5.0355 1.6543 0.0 0
M  V30 12 C 3.7434 3.9124 0.0 0
M  V30 13 N 3.7313 -0.5917 0.0 0
M  V30 14 C -5.3977 1.6664 0.0 0
M  V30 15 C -4.0936 -0.5917 0.0 0
M  V30 16 N 6.3034 2.4271 0.0 0
M  V30 17 C 4.9992 0.1932 0.0 0
M  V30 18 C 5.0113 4.6853 0.0 0
M  V30 19 C -5.434 0.1932 0.0 0
M  V30 20 C 6.2793 3.9487 0.0 0
M  V30 END ATOM
M  V30 BEGIN BOND
M  V30 1 2 1 2
M  V30 2 1 2 3
M  V30 3 1 2 4
M  V30 4 1 3 5
M  V30 5 1 4 6
M  V30 6 1 5 7
M  V30 7 2 5 8
M  V30 8 1 6 9
M  V30 9 1 6 10
M  V30 10 1 7 11
M  V30 11 2 7 12
M  V30 12 1 8 13
M  V30 13 1 9 14
M  V30 14 1 10 15
M  V30 15 2 11 16
M  V30 16 1 11 17
M  V30 17 1 12 18
M  V30 18 1 14 19
M  V30 19 1 16 20
M  V30 20 2 13 17
M  V30 21 1 15 19
M  V30 22 2 18 20
M  V30 END BOND
M  V30 END CTAB
M  END
>  <Molecule Name>


>  <Name>
SPE_0041

>  <Name_tmp>
x0678_05

>  <Smiles>
O=C(CC1CCCCC1)Nc1cncc2ncccc12

>  <Residue Name>
S41

$$$$
SPE_0042
Actelion Java MolfileCreator 2.0

  0  0  0  0  0  0              0 V3000
M  V30 BEGIN CTAB
M  V30 COUNTS 19 21 0 0 0
M  V30 BEGIN ATOM
M  V30 1 O 0.0 0.0 0.0 0
M  V30 2 C -0.0362 1.5454 0.0 0
M  V30 3 N 1.2315 2.3302 0.0 0
M  V30 4 C -1.3764 2.3302 0.0 0
M  V30 5 C 2.4993 1.6058 0.0 0
M  V30 6 C -2.7166 1.6058 0.0 0
M  V30 7 C 3.767 2.3906 0.0 0
M  V30 8 C 2.463 0.1328 0.0 0
M  V30 9 C -4.0568 2.3906 0.0 0
M  V30 10 C -2.7528 0.1328 0.0 0
M  V30 11 C 5.0348 1.6541 0.0 0
M  V30 12 C 4.0568 3.8757 0.0 0
M  V30 13 N 3.7308 -0.5916 0.0 0
M  V30 14 C -5.397 1.6662 0.0 0
M  V30 15 C -4.093 -0.5916 0.0 0
M  V30 16 N 6.1215 2.6804 0.0 0
M  V30 17 C 4.9986 0.1931 0.0 0
M  V30 18 C 5.5178 4.0568 0.0 0
M  V30 19 C -5.4333 0.1931 0.0 0
M  V30 END ATOM
M  V30 BEGIN BOND
M  V30 1 2 1 2
M  V30 2 1 2 3
M  V30 3 1 2 4
M  V30 4 1 3 5
M  V30 5 1 4 6
M  V30 6 2 5 7
M  V30 7 1 5 8
M  V30 8 1 6 9
M  V30 9 1 6 10
M  V30 10 1 7 11
M  V30 11 1 7 12
M  V30 12 2 8 13
M  V30 13 1 9 14
M  V30 14 1 10 15
M  V30 15 1 11 16
M  V30 16 2 11 17
M  V30 17 2 12 18
M  V30 18 1 14 19
M  V30 19 1 13 17
M  V30 20 1 15 19
M  V30 21 1 16 18
M  V30 END BOND
M  V30 END CTAB
M  END
>  <Molecule Name>


>  <Name>
SPE_0042

>  <Name_tmp>
x0678_06

>  <Smiles>
O=C(CC1CCCCC1)Nc1c(cc[nH]2)c2cnc1

>  <Residue Name>
S42

$$$$
SPE_0043
Actelion Java MolfileCreator 2.0

  0  0  0  0  0  0              0 V3000
M  V30 BEGIN CTAB
M  V30 COUNTS 19 21 0 0 0
M  V30 BEGIN ATOM
M  V30 1 O 0.0 0.0 0.0 0
M  V30 2 C -0.0362 1.5454 0.0 0
M  V30 3 N 1.2315 2.3302 0.0 0
M  V30 4 C -1.3764 2.3302 0.0 0
M  V30 5 C 2.4993 1.6058 0.0 0
M  V30 6 C -2.7166 1.6058 0.0 0
M  V30 7 C 3.767 2.3906 0.0 0
M  V30 8 C 2.463 0.1328 0.0 0
M  V30 9 C -4.0568 2.3906 0.0 0
M  V30 10 C -2.7528 0.1328 0.0 0
M  V30 11 N 5.0348 1.6541 0.0 0
M  V30 12 C 4.0568 3.8757 0.0 0
M  V30 13 N 3.7308 -0.5916 0.0 0
M  V30 14 C -5.397 1.6662 0.0 0
M  V30 15 C -4.093 -0.5916 0.0 0
M  V30 16 N 6.1215 2.6804 0.0 0
M  V30 17 C 4.9986 0.1931 0.0 0
M  V30 18 C 5.5178 4.0568 0.0 0
M  V30 19 C -5.4333 0.1931 0.0 0
M  V30 END ATOM
M  V30 BEGIN BOND
M  V30 1 2 1 2
M  V30 2 1 2 3
M  V30 3 1 2 4
M  V30 4 1 3 5
M  V30 5 1 4 6
M  V30 6 1 5 7
M  V30 7 2 5 8
M  V30 8 1 6 9
M  V30 9 1 6 10
M  V30 10 1 7 11
M  V30 11 2 7 12
M  V30 12 1 8 13
M  V30 13 1 9 14
M  V30 14 1 10 15
M  V30 15 1 11 16
M  V30 16 1 11 17
M  V30 17 1 12 18
M  V30 18 1 14 19
M  V30 19 2 13 17
M  V30 20 1 15 19
M  V30 21 2 16 18
M  V30 END BOND
M  V30 END CTAB
M  END
>  <Molecule Name>


>  <Name>
SPE_0043

>  <Name_tmp>
x0678_07

>  <Smiles>
O=C(CC1CCCCC1)Nc1cncn2nccc12

>  <Residue Name>
S43

$$$$
SPE_0044
Actelion Java MolfileCreator 2.0

  0  0  0  0  0  0              0 V3000
M  V30 BEGIN CTAB
M  V30 COUNTS 19 21 0 0 0
M  V30 BEGIN ATOM
M  V30 1 O 0.0 0.0 0.0 0
M  V30 2 C -0.0362 1.5454 0.0 0
M  V30 3 N 1.2315 2.3302 0.0 0
M  V30 4 C -1.3764 2.3302 0.0 0
M  V30 5 C 2.4993 1.6058 0.0 0
M  V30 6 C -2.7166 1.6058 0.0 0
M  V30 7 N 3.767 2.3906 0.0 0
M  V30 8 C 2.463 0.1328 0.0 0
M  V30 9 C -4.0568 2.3906 0.0 0
M  V30 10 C -2.7528 0.1328 0.0 0
M  V30 11 C 5.0348 1.6541 0.0 0
M  V30 12 C 4.0568 3.8757 0.0 0
M  V30 13 N 3.7308 -0.5916 0.0 0
M  V30 14 C -5.397 1.6662 0.0 0
M  V30 15 C -4.093 -0.5916 0.0 0
M  V30 16 N 6.1215 2.6804 0.0 0
M  V30 17 C 4.9986 0.1931 0.0 0
M  V30 18 C 5.5178 4.0568 0.0 0
M  V30 19 C -5.4333 0.1931 0.0 0
M  V30 END ATOM
M  V30 BEGIN BOND
M  V30 1 2 1 2
M  V30 2 1 2 3
M  V30 3 1 2 4
M  V30 4 1 3 5
M  V30 5 1 4 6
M  V30 6 1 5 7
M  V30 7 2 5 8
M  V30 8 1 6 9
M  V30 9 1 6 10
M  V30 10 1 7 11
M  V30 11 1 7 12
M  V30 12 1 8 13
M  V30 13 1 9 14
M  V30 14 1 10 15
M  V30 15 2 11 16
M  V30 16 1 11 17
M  V30 17 2 12 18
M  V30 18 1 14 19
M  V30 19 2 13 17
M  V30 20 1 15 19
M  V30 21 1 16 18
M  V30 END BOND
M  V30 END CTAB
M  END
>  <Molecule Name>


>  <Name>
SPE_0044

>  <Name_tmp>
x0678_08

>  <Smiles>
O=C(CC1CCCCC1)Nc1cncc2nccn12

>  <Residue Name>
S44

$$$$
SPE_0045
Actelion Java MolfileCreator 2.0

  0  0  0  0  0  0              0 V3000
M  V30 BEGIN CTAB
M  V30 COUNTS 19 21 0 0 0
M  V30 BEGIN ATOM
M  V30 1 O 0.0 0.0 0.0 0
M  V30 2 C -0.0362 1.5454 0.0 0
M  V30 3 N 1.2315 2.3302 0.0 0
M  V30 4 C -1.3764 2.3302 0.0 0
M  V30 5 C 2.4993 1.6058 0.0 0
M  V30 6 C -2.7166 1.6058 0.0 0
M  V30 7 C 3.767 2.3906 0.0 0
M  V30 8 C 2.463 0.1328 0.0 0
M  V30 9 C -4.0568 2.3906 0.0 0
M  V30 10 C -2.7528 0.1328 0.0 0
M  V30 11 N 4.0568 3.8757 0.0 0
M  V30 12 C 5.0348 1.6541 0.0 0
M  V30 13 N 3.7308 -0.5916 0.0 0
M  V30 14 C -5.397 1.6662 0.0 0
M  V30 15 C -4.093 -0.5916 0.0 0
M  V30 16 C 5.5178 4.0568 0.0 0
M  V30 17 N 6.1215 2.6804 0.0 0
M  V30 18 C 4.9986 0.1931 0.0 0
M  V30 19 C -5.4333 0.1931 0.0 0
M  V30 END ATOM
M  V30 BEGIN BOND
M  V30 1 2 1 2
M  V30 2 1 2 3
M  V30 3 1 2 4
M  V30 4 1 3 5
M  V30 5 1 4 6
M  V30 6 2 5 7
M  V30 7 1 5 8
M  V30 8 1 6 9
M  V30 9 1 6 10
M  V30 10 1 7 11
M  V30 11 1 7 12
M  V30 12 2 8 13
M  V30 13 1 9 14
M  V30 14 1 10 15
M  V30 15 2 11 16
M  V30 16 1 12 17
M  V30 17 2 12 18
M  V30 18 1 14 19
M  V30 19 1 13 18
M  V30 20 1 15 19
M  V30 21 1 16 17
M  V30 END BOND
M  V30 END CTAB
M  END
>  <Molecule Name>


>  <Name>
SPE_0045

>  <Name_tmp>
x0678_09

>  <Smiles>
O=C(CC1CCCCC1)Nc1c2nc[nH]c2cnc1

>  <Residue Name>
S45

$$$$
SPE_0046
Actelion Java MolfileCreator 2.0

  0  0  0  0  0  0              0 V3000
M  V30 BEGIN CTAB
M  V30 COUNTS 19 21 0 0 0
M  V30 BEGIN ATOM
M  V30 1 O 0.0 0.0 0.0 0
M  V30 2 C -0.0362 1.5454 0.0 0
M  V30 3 N 1.2315 2.3302 0.0 0
M  V30 4 C -1.3764 2.3302 0.0 0
M  V30 5 C 2.4993 1.6058 0.0 0
M  V30 6 C -2.7166 1.6058 0.0 0
M  V30 7 C 3.767 2.3906 0.0 0
M  V30 8 C 2.463 0.1328 0.0 0
M  V30 9 C -4.0568 2.3906 0.0 0
M  V30 10 C -2.7528 0.1328 0.0 0
M  V30 11 C 5.0348 1.6541 0.0 0
M  V30 12 C 4.0568 3.8757 0.0 0
M  V30 13 N 3.7308 -0.5916 0.0 0
M  V30 14 C -5.397 1.6662 0.0 0
M  V30 15 C -4.093 -0.5916 0.0 0
M  V30 16 N 6.1215 2.6804 0.0 0
M  V30 17 C 4.9986 0.1931 0.0 0
M  V30 18 N 5.5178 4.0568 0.0 0
M  V30 19 C -5.4333 0.1931 0.0 0
M  V30 END ATOM
M  V30 BEGIN BOND
M  V30 1 2 1 2
M  V30 2 1 2 3
M  V30 3 1 2 4
M  V30 4 1 3 5
M  V30 5 1 4 6
M  V30 6 2 5 7
M  V30 7 1 5 8
M  V30 8 1 6 9
M  V30 9 1 6 10
M  V30 10 1 7 11
M  V30 11 1 7 12
M  V30 12 2 8 13
M  V30 13 1 9 14
M  V30 14 1 10 15
M  V30 15 1 11 16
M  V30 16 2 11 17
M  V30 17 2 12 18
M  V30 18 1 14 19
M  V30 19 1 13 17
M  V30 20 1 15 19
M  V30 21 1 16 18
M  V30 END BOND
M  V30 END CTAB
M  END
>  <Molecule Name>


>  <Name>
SPE_0046

>  <Name_tmp>
x0678_10

>  <Smiles>
O=C(CC1CCCCC1)Nc1c(cn[nH]2)c2cnc1

>  <Residue Name>
S46

$$$$
SPE_0047
Actelion Java MolfileCreator 2.0

  0  0  0  0  0  0              0 V3000
M  V30 BEGIN CTAB
M  V30 COUNTS 20 22 0 0 0
M  V30 BEGIN ATOM
M  V30 1 O 0.0 0.0 0.0 0
M  V30 2 C -0.0488 1.5626 0.0 0
M  V30 3 N 1.2086 2.344 0.0 0
M  V30 4 C -1.4039 2.344 0.0 0
M  V30 5 C 2.4661 1.6237 0.0 0
M  V30 6 C -2.7591 1.6237 0.0 0
M  V30 7 C 3.7235 2.405 0.0 0
M  V30 8 C 2.4172 0.1587 0.0 0
M  V30 9 C -4.1142 2.405 0.0 0
M  V30 10 C -2.8079 0.1587 0.0 0
M  V30 11 N 3.6869 3.9433 0.0 0
M  V30 12 C 4.981 1.6725 0.0 0
M  V30 13 N 3.6747 -0.5615 0.0 0
M  V30 14 C -5.4694 1.6847 0.0 0
M  V30 15 C -4.1631 -0.5615 0.0 0
M  V30 16 C 4.9444 4.7246 0.0 0
M  V30 17 N 6.2385 2.4539 0.0 0
M  V30 18 C 4.9322 0.2197 0.0 0
M  V30 19 C -5.5182 0.2197 0.0 0
M  V30 20 C 6.2019 3.9921 0.0 0
M  V30 END ATOM
M  V30 BEGIN BOND
M  V30 1 2 1 2
M  V30 2 1 2 3
M  V30 3 1 2 4
M  V30 4 1 3 5
M  V30 5 1 4 6
M  V30 6 1 5 7
M  V30 7 2 5 8
M  V30 8 1 6 9
M  V30 9 1 6 10
M  V30 10 2 7 11
M  V30 11 1 7 12
M  V30 12 1 8 13
M  V30 13 1 9 14
M  V30 14 1 10 15
M  V30 15 1 11 16
M  V30 16 2 12 17
M  V30 17 1 12 18
M  V30 18 1 14 19
M  V30 19 2 16 20
M  V30 20 2 13 18
M  V30 21 1 15 19
M  V30 22 1 17 20
M  V30 END BOND
M  V30 END CTAB
M  END
>  <Molecule Name>


>  <Name>
SPE_0047

>  <Name_tmp>
x0678_11

>  <Smiles>
O=C(CC1CCCCC1)NC1=CNC=C2N=CC=CN12

>  <Residue Name>
S47

$$$$
SPE_0048
Actelion Java MolfileCreator 2.0

  0  0  0  0  0  0              0 V3000
M  V30 BEGIN CTAB
M  V30 COUNTS 17 18 0 0 0
M  V30 BEGIN ATOM
M  V30 1 F 0.0 0.0 0.0 0
M  V30 2 C 1.2862 0.7552 0.0 0
M  V30 3 N 2.5724 0.0118 0.0 0
M  V30 4 C 1.2744 2.2656 0.0 0
M  V30 5 C 3.8587 0.767 0.0 0
M  V30 6 N -0.0354 3.0208 0.0 0
M  V30 7 C 2.5606 3.0208 0.0 0
M  V30 8 C 3.8469 2.2774 0.0 0
M  V30 9 C -1.3452 2.2774 0.0 0
M  V30 10 O -1.357 0.7906 0.0 0
M  V30 11 N -2.655 3.0326 0.0 0
M  V30 12 C -3.9649 2.2892 0.0 0
M  V30 13 C -5.2747 3.0444 0.0 0
M  V30 14 C -3.9767 0.8024 0.0 0
M  V30 15 C -6.5845 2.3128 0.0 0
M  V30 16 C -5.2865 0.059 0.0 0
M  V30 17 C -6.5963 0.826 0.0 0
M  V30 END ATOM
M  V30 BEGIN BOND
M  V30 1 1 1 2
M  V30 2 2 2 3
M  V30 3 1 2 4
M  V30 4 1 3 5
M  V30 5 1 4 6
M  V30 6 2 4 7
M  V30 7 2 5 8
M  V30 8 1 6 9
M  V30 9 2 9 10
M  V30 10 1 9 11
M  V30 11 1 11 12
M  V30 12 2 12 13
M  V30 13 1 12 14
M  V30 14 1 13 15
M  V30 15 2 14 16
M  V30 16 2 15 17
M  V30 17 1 7 8
M  V30 18 1 16 17
M  V30 END BOND
M  V30 END CTAB
M  END
>  <Molecule Name>


>  <Name>
SPE_0048

>  <Name_tmp>


>  <Smiles>
O=C(Nc1cccnc1F)Nc1ccccc1

>  <Residue Name>
S48

$$$$
SPE_0049
Actelion Java MolfileCreator 2.0

  0  0  0  0  0  0              0 V3000
M  V30 BEGIN CTAB
M  V30 COUNTS 18 19 0 0 0
M  V30 BEGIN ATOM
M  V30 1 F 0.0 0.0 0.0 0
M  V30 2 C 1.2866 0.7554 0.0 0
M  V30 3 N 2.5732 0.0118 0.0 0
M  V30 4 C 1.2748 2.2663 0.0 0
M  V30 5 C 3.8598 0.7672 0.0 0
M  V30 6 N -0.0354 3.0217 0.0 0
M  V30 7 C 2.5614 3.0217 0.0 0
M  V30 8 C 3.848 2.2781 0.0 0
M  V30 9 C -1.3456 2.2781 0.0 0
M  V30 10 N 5.1346 3.0335 0.0 0
M  V30 11 O -1.3574 0.7908 0.0 0
M  V30 12 N -2.6558 3.0335 0.0 0
M  V30 13 C -3.966 2.2899 0.0 0
M  V30 14 C -5.2763 3.0453 0.0 0
M  V30 15 C -3.9778 0.8026 0.0 0
M  V30 16 C -6.5865 2.3135 0.0 0
M  V30 17 C -5.2881 0.059 0.0 0
M  V30 18 C -6.5983 0.8262 0.0 0
M  V30 END ATOM
M  V30 BEGIN BOND
M  V30 1 1 1 2
M  V30 2 2 2 3
M  V30 3 1 2 4
M  V30 4 1 3 5
M  V30 5 1 4 6
M  V30 6 2 4 7
M  V30 7 2 5 8
M  V30 8 1 6 9
M  V30 9 1 8 10
M  V30 10 2 9 11
M  V30 11 1 9 12
M  V30 12 1 12 13
M  V30 13 2 13 14
M  V30 14 1 13 15
M  V30 15 1 14 16
M  V30 16 2 15 17
M  V30 17 2 16 18
M  V30 18 1 7 8
M  V30 19 1 17 18
M  V30 END BOND
M  V30 END CTAB
M  END
>  <Molecule Name>


>  <Name>
SPE_0049

>  <Name_tmp>


>  <Smiles>
O=C(Nc1cc(N)cnc1F)Nc1ccccc1

>  <Residue Name>
S49

$$$$
SPE_0050
Actelion Java MolfileCreator 2.0

  0  0  0  0  0  0              0 V3000
M  V30 BEGIN CTAB
M  V30 COUNTS 19 20 0 0 0
M  V30 BEGIN ATOM
M  V30 1 F 0.0 0.0 0.0 0
M  V30 2 C 1.2861 0.7551 0.0 0
M  V30 3 N 2.5722 0.0117 0.0 0
M  V30 4 C 1.2743 2.2655 0.0 0
M  V30 5 C 3.8584 0.7669 0.0 0
M  V30 6 N -0.0353 3.0206 0.0 0
M  V30 7 C 2.5604 3.0206 0.0 0
M  V30 8 C 3.8466 2.2773 0.0 0
M  V30 9 C -1.3451 2.2773 0.0 0
M  V30 10 N 5.1327 3.0324 0.0 0
M  V30 11 O -1.3569 0.7905 0.0 0
M  V30 12 N -2.6548 3.0324 0.0 0
M  V30 13 C 5.1209 4.5428 0.0 0
M  V30 14 C -3.9646 2.2891 0.0 0
M  V30 15 C -5.2743 3.0442 0.0 0
M  V30 16 C -3.9764 0.8023 0.0 0
M  V30 17 C -6.5841 2.3127 0.0 0
M  V30 18 C -5.2861 0.0589 0.0 0
M  V30 19 C -6.5959 0.8259 0.0 0
M  V30 END ATOM
M  V30 BEGIN BOND
M  V30 1 1 1 2
M  V30 2 2 2 3
M  V30 3 1 2 4
M  V30 4 1 3 5
M  V30 5 1 4 6
M  V30 6 2 4 7
M  V30 7 2 5 8
M  V30 8 1 6 9
M  V30 9 1 8 10
M  V30 10 2 9 11
M  V30 11 1 9 12
M  V30 12 1 10 13
M  V30 13 1 12 14
M  V30 14 2 14 15
M  V30 15 1 14 16
M  V30 16 1 15 17
M  V30 17 2 16 18
M  V30 18 2 17 19
M  V30 19 1 7 8
M  V30 20 1 18 19
M  V30 END BOND
M  V30 END CTAB
M  END
>  <Molecule Name>


>  <Name>
SPE_0050

>  <Name_tmp>


>  <Smiles>
CNc1cnc(c(c1)NC(=O)Nc1ccccc1)F

>  <Residue Name>
S50

$$$$
SPE_0051
Actelion Java MolfileCreator 2.0

  0  0  0  0  0  0              0 V3000
M  V30 BEGIN CTAB
M  V30 COUNTS 20 21 0 0 0
M  V30 BEGIN ATOM
M  V30 1 F 0.0 0.0 0.0 0
M  V30 2 C 1.2869 0.7556 0.0 0
M  V30 3 N 2.5739 0.0118 0.0 0
M  V30 4 C 1.2751 2.2669 0.0 0
M  V30 5 C 3.8609 0.7674 0.0 0
M  V30 6 N -0.0354 3.0226 0.0 0
M  V30 7 C 2.5621 3.0226 0.0 0
M  V30 8 C 3.8491 2.2787 0.0 0
M  V30 9 C -1.346 2.2787 0.0 0
M  V30 10 N 5.1361 3.0344 0.0 0
M  V30 11 O -1.3578 0.791 0.0 0
M  V30 12 N -2.6566 3.0344 0.0 0
M  V30 13 C 6.423 2.3023 0.0 0
M  V30 14 C 5.1243 4.5457 0.0 0
M  V30 15 C -3.9672 2.2905 0.0 0
M  V30 16 C -5.2777 3.0462 0.0 0
M  V30 17 C -3.979 0.8028 0.0 0
M  V30 18 C -6.5883 2.3142 0.0 0
M  V30 19 C -5.2896 0.059 0.0 0
M  V30 20 C -6.6002 0.8265 0.0 0
M  V30 END ATOM
M  V30 BEGIN BOND
M  V30 1 1 1 2
M  V30 2 2 2 3
M  V30 3 1 2 4
M  V30 4 1 3 5
M  V30 5 1 4 6
M  V30 6 2 4 7
M  V30 7 2 5 8
M  V30 8 1 6 9
M  V30 9 1 8 10
M  V30 10 2 9 11
M  V30 11 1 9 12
M  V30 12 1 10 13
M  V30 13 1 10 14
M  V30 14 1 12 15
M  V30 15 2 15 16
M  V30 16 1 15 17
M  V30 17 1 16 18
M  V30 18 2 17 19
M  V30 19 2 18 20
M  V30 20 1 7 8
M  V30 21 1 19 20
M  V30 END BOND
M  V30 END CTAB
M  END
>  <Molecule Name>


>  <Name>
SPE_0051

>  <Name_tmp>


>  <Smiles>
O=C(Nc1cc(cnc1F)N(C)C)Nc1ccccc1

>  <Residue Name>
S51

$$$$
SPE_0052
Actelion Java MolfileCreator 2.0

  0  0  0  0  0  0              0 V3000
M  V30 BEGIN CTAB
M  V30 COUNTS 21 23 0 0 0
M  V30 BEGIN ATOM
M  V30 1 F 0.0 0.0 0.0 0
M  V30 2 C 1.2861 0.7551 0.0 0
M  V30 3 N 2.5723 0.0117 0.0 0
M  V30 4 C 1.2743 2.2655 0.0 0
M  V30 5 C 3.8585 0.7669 0.0 0
M  V30 6 N -0.0353 3.0207 0.0 0
M  V30 7 C 2.5605 3.0207 0.0 0
M  V30 8 C 3.8467 2.2773 0.0 0
M  V30 9 C -1.3451 2.2773 0.0 0
M  V30 10 C 2.5487 4.5311 0.0 0
M  V30 11 N 5.1328 3.0325 0.0 0
M  V30 12 O -1.3569 0.7905 0.0 0
M  V30 13 N -2.6549 3.0325 0.0 0
M  V30 14 N 3.8349 5.298 0.0 0
M  V30 15 C 5.121 4.5429 0.0 0
M  V30 16 C -3.9647 2.2891 0.0 0
M  V30 17 C -5.2744 3.0443 0.0 0
M  V30 18 C -3.9765 0.8023 0.0 0
M  V30 19 C -6.5842 2.3127 0.0 0
M  V30 20 C -5.2862 0.0589 0.0 0
M  V30 21 C -6.596 0.8259 0.0 0
M  V30 END ATOM
M  V30 BEGIN BOND
M  V30 1 1 1 2
M  V30 2 1 2 3
M  V30 3 2 2 4
M  V30 4 2 3 5
M  V30 5 1 4 6
M  V30 6 1 4 7
M  V30 7 1 5 8
M  V30 8 1 6 9
M  V30 9 2 7 10
M  V30 10 2 8 11
M  V30 11 2 9 12
M  V30 12 1 9 13
M  V30 13 1 10 14
M  V30 14 1 11 15
M  V30 15 1 13 16
M  V30 16 2 16 17
M  V30 17 1 16 18
M  V30 18 1 17 19
M  V30 19 2 18 20
M  V30 20 2 19 21
M  V30 21 1 7 8
M  V30 22 2 14 15
M  V30 23 1 20 21
M  V30 END BOND
M  V30 END CTAB
M  END
>  <Molecule Name>


>  <Name>
SPE_0052

>  <Name_tmp>


>  <Smiles>
O=C(Nc1c(F)ncc2c1cncn2)Nc1ccccc1

>  <Residue Name>
S52

$$$$
SPE_0053
Actelion Java MolfileCreator 2.0

  0  0  0  0  0  0              0 V3000
M  V30 BEGIN CTAB
M  V30 COUNTS 21 23 0 0 0
M  V30 BEGIN ATOM
M  V30 1 F 0.0 0.0 0.0 0
M  V30 2 C 1.2861 0.7551 0.0 0
M  V30 3 N 2.5723 0.0117 0.0 0
M  V30 4 C 1.2743 2.2655 0.0 0
M  V30 5 C 3.8585 0.7669 0.0 0
M  V30 6 N -0.0353 3.0207 0.0 0
M  V30 7 C 2.5605 3.0207 0.0 0
M  V30 8 C 3.8467 2.2773 0.0 0
M  V30 9 C -1.3451 2.2773 0.0 0
M  V30 10 C 2.5487 4.5311 0.0 0
M  V30 11 N 5.1328 3.0325 0.0 0
M  V30 12 O -1.3569 0.7905 0.0 0
M  V30 13 N -2.6549 3.0325 0.0 0
M  V30 14 C 3.8349 5.298 0.0 0
M  V30 15 C 5.121 4.5429 0.0 0
M  V30 16 C -3.9647 2.2891 0.0 0
M  V30 17 C -5.2744 3.0443 0.0 0
M  V30 18 C -3.9765 0.8023 0.0 0
M  V30 19 C -6.5842 2.3127 0.0 0
M  V30 20 C -5.2862 0.0589 0.0 0
M  V30 21 C -6.596 0.8259 0.0 0
M  V30 END ATOM
M  V30 BEGIN BOND
M  V30 1 1 1 2
M  V30 2 1 2 3
M  V30 3 2 2 4
M  V30 4 2 3 5
M  V30 5 1 4 6
M  V30 6 1 4 7
M  V30 7 1 5 8
M  V30 8 1 6 9
M  V30 9 2 7 10
M  V30 10 2 8 11
M  V30 11 2 9 12
M  V30 12 1 9 13
M  V30 13 1 10 14
M  V30 14 1 11 15
M  V30 15 1 13 16
M  V30 16 2 16 17
M  V30 17 1 16 18
M  V30 18 1 17 19
M  V30 19 2 18 20
M  V30 20 2 19 21
M  V30 21 1 7 8
M  V30 22 2 14 15
M  V30 23 1 20 21
M  V30 END BOND
M  V30 END CTAB
M  END
>  <Molecule Name>


>  <Name>
SPE_0053

>  <Name_tmp>


>  <Smiles>
O=C(Nc1c(F)ncc2c1cccn2)Nc1ccccc1

>  <Residue Name>
S53

$$$$
SPE_0054
Actelion Java MolfileCreator 2.0

  0  0  0  0  0  0              0 V3000
M  V30 BEGIN CTAB
M  V30 COUNTS 20 22 0 0 0
M  V30 BEGIN ATOM
M  V30 1 F 0.0 0.0 0.0 0
M  V30 2 C 1.2868 0.7556 0.0 0
M  V30 3 N 2.5737 0.0118 0.0 0
M  V30 4 C 1.275 2.2668 0.0 0
M  V30 5 C 3.8606 0.7674 0.0 0
M  V30 6 N -0.0354 3.0224 0.0 0
M  V30 7 C 2.5619 3.0224 0.0 0
M  V30 8 C 3.8488 2.2786 0.0 0
M  V30 9 C -1.3459 2.2786 0.0 0
M  V30 10 C 2.8571 4.4982 0.0 0
M  V30 11 N 4.9468 3.2939 0.0 0
M  V30 12 O -1.3577 0.791 0.0 0
M  V30 13 N -2.6564 3.0342 0.0 0
M  V30 14 C 4.3329 4.6634 0.0 0
M  V30 15 C -3.9669 2.2904 0.0 0
M  V30 16 C -5.2774 3.046 0.0 0
M  V30 17 C -3.9787 0.8028 0.0 0
M  V30 18 C -6.5879 2.314 0.0 0
M  V30 19 C -5.2892 0.059 0.0 0
M  V30 20 C -6.5997 0.8264 0.0 0
M  V30 END ATOM
M  V30 BEGIN BOND
M  V30 1 1 1 2
M  V30 2 2 2 3
M  V30 3 1 2 4
M  V30 4 1 3 5
M  V30 5 1 4 6
M  V30 6 2 4 7
M  V30 7 2 5 8
M  V30 8 1 6 9
M  V30 9 1 7 10
M  V30 10 1 8 11
M  V30 11 2 9 12
M  V30 12 1 9 13
M  V30 13 2 10 14
M  V30 14 1 13 15
M  V30 15 2 15 16
M  V30 16 1 15 17
M  V30 17 1 16 18
M  V30 18 2 17 19
M  V30 19 2 18 20
M  V30 20 1 7 8
M  V30 21 1 11 14
M  V30 22 1 19 20
M  V30 END BOND
M  V30 END CTAB
M  END
>  <Molecule Name>


>  <Name>
SPE_0054

>  <Name_tmp>


>  <Smiles>
O=C(Nc1c(F)ncc2c1cc[nH]2)Nc1ccccc1

>  <Residue Name>
S54

$$$$
SPE_0055
Actelion Java MolfileCreator 2.0

  0  0  0  0  0  0              0 V3000
M  V30 BEGIN CTAB
M  V30 COUNTS 20 22 0 0 0
M  V30 BEGIN ATOM
M  V30 1 F 0.0 0.0 0.0 0
M  V30 2 C 1.2868 0.7556 0.0 0
M  V30 3 N 2.5737 0.0118 0.0 0
M  V30 4 C 1.275 2.2668 0.0 0
M  V30 5 C 3.8606 0.7674 0.0 0
M  V30 6 N -0.0354 3.0224 0.0 0
M  V30 7 C 2.5619 3.0224 0.0 0
M  V30 8 N 3.8488 2.2786 0.0 0
M  V30 9 C -1.3459 2.2786 0.0 0
M  V30 10 C 2.8571 4.4982 0.0 0
M  V30 11 N 4.9468 3.2939 0.0 0
M  V30 12 O -1.3577 0.791 0.0 0
M  V30 13 N -2.6564 3.0342 0.0 0
M  V30 14 C 4.3329 4.6634 0.0 0
M  V30 15 C -3.9669 2.2904 0.0 0
M  V30 16 C -5.2774 3.046 0.0 0
M  V30 17 C -3.9787 0.8028 0.0 0
M  V30 18 C -6.5879 2.314 0.0 0
M  V30 19 C -5.2892 0.059 0.0 0
M  V30 20 C -6.5997 0.8264 0.0 0
M  V30 END ATOM
M  V30 BEGIN BOND
M  V30 1 1 1 2
M  V30 2 1 2 3
M  V30 3 2 2 4
M  V30 4 2 3 5
M  V30 5 1 4 6
M  V30 6 1 4 7
M  V30 7 1 5 8
M  V30 8 1 6 9
M  V30 9 2 7 10
M  V30 10 1 8 11
M  V30 11 2 9 12
M  V30 12 1 9 13
M  V30 13 1 10 14
M  V30 14 1 13 15
M  V30 15 2 15 16
M  V30 16 1 15 17
M  V30 17 1 16 18
M  V30 18 2 17 19
M  V30 19 2 18 20
M  V30 20 1 7 8
M  V30 21 2 11 14
M  V30 22 1 19 20
M  V30 END BOND
M  V30 END CTAB
M  END
>  <Molecule Name>


>  <Name>
SPE_0055

>  <Name_tmp>


>  <Smiles>
O=C(Nc1c(F)ncn2c1ccn2)Nc1ccccc1

>  <Residue Name>
S55

$$$$
SPE_0056
Actelion Java MolfileCreator 2.0

  0  0  0  0  0  0              0 V3000
M  V30 BEGIN CTAB
M  V30 COUNTS 20 22 0 0 0
M  V30 BEGIN ATOM
M  V30 1 F 0.0 0.0 0.0 0
M  V30 2 C 1.2868 0.7556 0.0 0
M  V30 3 N 2.5737 0.0118 0.0 0
M  V30 4 C 1.275 2.2668 0.0 0
M  V30 5 C 3.8606 0.7674 0.0 0
M  V30 6 N 2.5619 3.0224 0.0 0
M  V30 7 N -0.0354 3.0224 0.0 0
M  V30 8 C 3.8488 2.2786 0.0 0
M  V30 9 C 2.8571 4.4982 0.0 0
M  V30 10 C -1.3459 2.2786 0.0 0
M  V30 11 N 4.9468 3.2939 0.0 0
M  V30 12 C 4.3329 4.6634 0.0 0
M  V30 13 O -1.3577 0.791 0.0 0
M  V30 14 N -2.6564 3.0342 0.0 0
M  V30 15 C -3.9669 2.2904 0.0 0
M  V30 16 C -5.2774 3.046 0.0 0
M  V30 17 C -3.9787 0.8028 0.0 0
M  V30 18 C -6.5879 2.314 0.0 0
M  V30 19 C -5.2892 0.059 0.0 0
M  V30 20 C -6.5997 0.8264 0.0 0
M  V30 END ATOM
M  V30 BEGIN BOND
M  V30 1 1 1 2
M  V30 2 1 2 3
M  V30 3 2 2 4
M  V30 4 2 3 5
M  V30 5 1 4 6
M  V30 6 1 4 7
M  V30 7 1 5 8
M  V30 8 1 6 9
M  V30 9 1 7 10
M  V30 10 2 8 11
M  V30 11 2 9 12
M  V30 12 2 10 13
M  V30 13 1 10 14
M  V30 14 1 14 15
M  V30 15 2 15 16
M  V30 16 1 15 17
M  V30 17 1 16 18
M  V30 18 2 17 19
M  V30 19 2 18 20
M  V30 20 1 6 8
M  V30 21 1 11 12
M  V30 22 1 19 20
M  V30 END BOND
M  V30 END CTAB
M  END
>  <Molecule Name>


>  <Name>
SPE_0056

>  <Name_tmp>


>  <Smiles>
O=C(Nc1c(F)ncc2n1ccn2)Nc1ccccc1

>  <Residue Name>
S56

$$$$
SPE_0057
Actelion Java MolfileCreator 2.0

  0  0  0  0  0  0              0 V3000
M  V30 BEGIN CTAB
M  V30 COUNTS 20 22 0 0 0
M  V30 BEGIN ATOM
M  V30 1 F 0.0 0.0 0.0 0
M  V30 2 C 1.2868 0.7556 0.0 0
M  V30 3 N 2.5737 0.0118 0.0 0
M  V30 4 C 1.275 2.2668 0.0 0
M  V30 5 C 3.8606 0.7674 0.0 0
M  V30 6 N -0.0354 3.0224 0.0 0
M  V30 7 C 2.5619 3.0224 0.0 0
M  V30 8 C 3.8488 2.2786 0.0 0
M  V30 9 C -1.3459 2.2786 0.0 0
M  V30 10 N 2.8571 4.4982 0.0 0
M  V30 11 N 4.9468 3.2939 0.0 0
M  V30 12 O -1.3577 0.791 0.0 0
M  V30 13 N -2.6564 3.0342 0.0 0
M  V30 14 C 4.3329 4.6634 0.0 0
M  V30 15 C -3.9669 2.2904 0.0 0
M  V30 16 C -5.2774 3.046 0.0 0
M  V30 17 C -3.9787 0.8028 0.0 0
M  V30 18 C -6.5879 2.314 0.0 0
M  V30 19 C -5.2892 0.059 0.0 0
M  V30 20 C -6.5997 0.8264 0.0 0
M  V30 END ATOM
M  V30 BEGIN BOND
M  V30 1 1 1 2
M  V30 2 2 2 3
M  V30 3 1 2 4
M  V30 4 1 3 5
M  V30 5 1 4 6
M  V30 6 2 4 7
M  V30 7 2 5 8
M  V30 8 1 6 9
M  V30 9 1 7 10
M  V30 10 1 8 11
M  V30 11 2 9 12
M  V30 12 1 9 13
M  V30 13 2 10 14
M  V30 14 1 13 15
M  V30 15 2 15 16
M  V30 16 1 15 17
M  V30 17 1 16 18
M  V30 18 2 17 19
M  V30 19 2 18 20
M  V30 20 1 7 8
M  V30 21 1 11 14
M  V30 22 1 19 20
M  V30 END BOND
M  V30 END CTAB
M  END
>  <Molecule Name>


>  <Name>
SPE_0057

>  <Name_tmp>


>  <Smiles>
O=C(Nc1c(F)ncc2c1nc[nH]2)Nc1ccccc1

>  <Residue Name>
S57

$$$$
SPE_0058
Actelion Java MolfileCreator 2.0

  0  0  0  0  0  0              0 V3000
M  V30 BEGIN CTAB
M  V30 COUNTS 20 22 0 0 0
M  V30 BEGIN ATOM
M  V30 1 F 0.0 0.0 0.0 0
M  V30 2 C 1.2868 0.7556 0.0 0
M  V30 3 N 2.5737 0.0118 0.0 0
M  V30 4 C 1.275 2.2668 0.0 0
M  V30 5 C 3.8606 0.7674 0.0 0
M  V30 6 N -0.0354 3.0224 0.0 0
M  V30 7 C 2.5619 3.0224 0.0 0
M  V30 8 C 3.8488 2.2786 0.0 0
M  V30 9 C -1.3459 2.2786 0.0 0
M  V30 10 C 2.8571 4.4982 0.0 0
M  V30 11 N 4.9468 3.2939 0.0 0
M  V30 12 O -1.3577 0.791 0.0 0
M  V30 13 N -2.6564 3.0342 0.0 0
M  V30 14 N 4.3329 4.6634 0.0 0
M  V30 15 C -3.9669 2.2904 0.0 0
M  V30 16 C -5.2774 3.046 0.0 0
M  V30 17 C -3.9787 0.8028 0.0 0
M  V30 18 C -6.5879 2.314 0.0 0
M  V30 19 C -5.2892 0.059 0.0 0
M  V30 20 C -6.5997 0.8264 0.0 0
M  V30 END ATOM
M  V30 BEGIN BOND
M  V30 1 1 1 2
M  V30 2 2 2 3
M  V30 3 1 2 4
M  V30 4 1 3 5
M  V30 5 1 4 6
M  V30 6 2 4 7
M  V30 7 2 5 8
M  V30 8 1 6 9
M  V30 9 1 7 10
M  V30 10 1 8 11
M  V30 11 2 9 12
M  V30 12 1 9 13
M  V30 13 2 10 14
M  V30 14 1 13 15
M  V30 15 2 15 16
M  V30 16 1 15 17
M  V30 17 1 16 18
M  V30 18 2 17 19
M  V30 19 2 18 20
M  V30 20 1 7 8
M  V30 21 1 11 14
M  V30 22 1 19 20
M  V30 END BOND
M  V30 END CTAB
M  END
>  <Molecule Name>


>  <Name>
SPE_0058

>  <Name_tmp>


>  <Smiles>
O=C(Nc1c(F)ncc2c1cn[nH]2)Nc1ccccc1

>  <Residue Name>
S58

$$$$
SPE_0059
Actelion Java MolfileCreator 2.0

  0  0  0  0  0  0              0 V3000
M  V30 BEGIN CTAB
M  V30 COUNTS 21 23 0 0 0
M  V30 BEGIN ATOM
M  V30 1 F 0.0 0.0 0.0 0
M  V30 2 C 1.2861 0.7551 0.0 0
M  V30 3 N 2.5723 0.0117 0.0 0
M  V30 4 C 1.2743 2.2655 0.0 0
M  V30 5 C 3.8585 0.7669 0.0 0
M  V30 6 N -0.0353 3.0207 0.0 0
M  V30 7 C 2.5605 3.0207 0.0 0
M  V30 8 C 3.8467 2.2773 0.0 0
M  V30 9 C -1.3451 2.2773 0.0 0
M  V30 10 N 2.5487 4.5311 0.0 0
M  V30 11 N 5.1328 3.0325 0.0 0
M  V30 12 O -1.3569 0.7905 0.0 0
M  V30 13 N -2.6549 3.0325 0.0 0
M  V30 14 C 3.8349 5.298 0.0 0
M  V30 15 C 5.121 4.5429 0.0 0
M  V30 16 C -3.9647 2.2891 0.0 0
M  V30 17 C -5.2744 3.0443 0.0 0
M  V30 18 C -3.9765 0.8023 0.0 0
M  V30 19 C -6.5842 2.3127 0.0 0
M  V30 20 C -5.2862 0.0589 0.0 0
M  V30 21 C -6.596 0.8259 0.0 0
M  V30 END ATOM
M  V30 BEGIN BOND
M  V30 1 1 1 2
M  V30 2 1 2 3
M  V30 3 2 2 4
M  V30 4 2 3 5
M  V30 5 1 4 6
M  V30 6 1 4 7
M  V30 7 1 5 8
M  V30 8 1 6 9
M  V30 9 2 7 10
M  V30 10 2 8 11
M  V30 11 2 9 12
M  V30 12 1 9 13
M  V30 13 1 10 14
M  V30 14 1 11 15
M  V30 15 1 13 16
M  V30 16 2 16 17
M  V30 17 1 16 18
M  V30 18 1 17 19
M  V30 19 2 18 20
M  V30 20 2 19 21
M  V30 21 1 7 8
M  V30 22 2 14 15
M  V30 23 1 20 21
M  V30 END BOND
M  V30 END CTAB
M  END
>  <Molecule Name>


>  <Name>
SPE_0059

>  <Name_tmp>


>  <Smiles>
O=C(Nc1c(F)ncc2c1nccn2)Nc1ccccc1

>  <Residue Name>
S59

$$$$
SPE_0060
Actelion Java MolfileCreator 2.0

  0  0  0  0  0  0              0 V3000
M  V30 BEGIN CTAB
M  V30 COUNTS 17 18 0 0 0
M  V30 BEGIN ATOM
M  V30 1 F 0.0 0.0 0.0 0
M  V30 2 C 1.2862 0.7552 0.0 0
M  V30 3 N 2.5724 0.0118 0.0 0
M  V30 4 C 1.2744 2.2656 0.0 0
M  V30 5 C 3.8587 0.767 0.0 0
M  V30 6 N -0.0354 3.0208 0.0 0
M  V30 7 C 2.5606 3.0208 0.0 0
M  V30 8 C 3.8469 2.2774 0.0 0
M  V30 9 C -1.3452 2.2774 0.0 0
M  V30 10 O -1.357 0.7906 0.0 0
M  V30 11 C -2.655 3.0326 0.0 0
M  V30 12 C -3.9649 2.2892 0.0 0
M  V30 13 C -5.2747 3.0444 0.0 0
M  V30 14 C -3.9767 0.8024 0.0 0
M  V30 15 C -6.5845 2.3128 0.0 0
M  V30 16 C -5.2865 0.059 0.0 0
M  V30 17 C -6.5963 0.826 0.0 0
M  V30 END ATOM
M  V30 BEGIN BOND
M  V30 1 1 1 2
M  V30 2 2 2 3
M  V30 3 1 2 4
M  V30 4 1 3 5
M  V30 5 1 4 6
M  V30 6 2 4 7
M  V30 7 2 5 8
M  V30 8 1 6 9
M  V30 9 2 9 10
M  V30 10 1 9 11
M  V30 11 1 11 12
M  V30 12 1 12 13
M  V30 13 1 12 14
M  V30 14 1 13 15
M  V30 15 1 14 16
M  V30 16 1 15 17
M  V30 17 1 7 8
M  V30 18 1 16 17
M  V30 END BOND
M  V30 END CTAB
M  END
>  <Molecule Name>


>  <Name>
SPE_0060

>  <Name_tmp>


>  <Smiles>
O=C(Nc1cccnc1F)CC1CCCCC1

>  <Residue Name>
S60

$$$$
SPE_0061
Actelion Java MolfileCreator 2.0

  0  0  0  0  0  0              0 V3000
M  V30 BEGIN CTAB
M  V30 COUNTS 18 19 0 0 0
M  V30 BEGIN ATOM
M  V30 1 F 0.0 0.0 0.0 0
M  V30 2 C 1.2866 0.7554 0.0 0
M  V30 3 N 2.5732 0.0118 0.0 0
M  V30 4 C 1.2748 2.2663 0.0 0
M  V30 5 C 3.8598 0.7672 0.0 0
M  V30 6 N -0.0354 3.0217 0.0 0
M  V30 7 C 2.5614 3.0217 0.0 0
M  V30 8 C 3.848 2.2781 0.0 0
M  V30 9 C -1.3456 2.2781 0.0 0
M  V30 10 N 5.1346 3.0335 0.0 0
M  V30 11 O -1.3574 0.7908 0.0 0
M  V30 12 C -2.6558 3.0335 0.0 0
M  V30 13 C -3.966 2.2899 0.0 0
M  V30 14 C -5.2763 3.0453 0.0 0
M  V30 15 C -3.9778 0.8026 0.0 0
M  V30 16 C -6.5865 2.3135 0.0 0
M  V30 17 C -5.2881 0.059 0.0 0
M  V30 18 C -6.5983 0.8262 0.0 0
M  V30 END ATOM
M  V30 BEGIN BOND
M  V30 1 1 1 2
M  V30 2 2 2 3
M  V30 3 1 2 4
M  V30 4 1 3 5
M  V30 5 1 4 6
M  V30 6 2 4 7
M  V30 7 2 5 8
M  V30 8 1 6 9
M  V30 9 1 8 10
M  V30 10 2 9 11
M  V30 11 1 9 12
M  V30 12 1 12 13
M  V30 13 1 13 14
M  V30 14 1 13 15
M  V30 15 1 14 16
M  V30 16 1 15 17
M  V30 17 1 16 18
M  V30 18 1 7 8
M  V30 19 1 17 18
M  V30 END BOND
M  V30 END CTAB
M  END
>  <Molecule Name>


>  <Name>
SPE_0061

>  <Name_tmp>


>  <Smiles>
O=C(Nc1cc(N)cnc1F)CC1CCCCC1

>  <Residue Name>
S61

$$$$
SPE_0062
Actelion Java MolfileCreator 2.0

  0  0  0  0  0  0              0 V3000
M  V30 BEGIN CTAB
M  V30 COUNTS 19 20 0 0 0
M  V30 BEGIN ATOM
M  V30 1 F 0.0 0.0 0.0 0
M  V30 2 C 1.2861 0.7551 0.0 0
M  V30 3 N 2.5722 0.0117 0.0 0
M  V30 4 C 1.2743 2.2655 0.0 0
M  V30 5 C 3.8584 0.7669 0.0 0
M  V30 6 N -0.0353 3.0206 0.0 0
M  V30 7 C 2.5604 3.0206 0.0 0
M  V30 8 C 3.8466 2.2773 0.0 0
M  V30 9 C -1.3451 2.2773 0.0 0
M  V30 10 N 5.1327 3.0324 0.0 0
M  V30 11 O -1.3569 0.7905 0.0 0
M  V30 12 C -2.6548 3.0324 0.0 0
M  V30 13 C 5.1209 4.5428 0.0 0
M  V30 14 C -3.9646 2.2891 0.0 0
M  V30 15 C -5.2743 3.0442 0.0 0
M  V30 16 C -3.9764 0.8023 0.0 0
M  V30 17 C -6.5841 2.3127 0.0 0
M  V30 18 C -5.2861 0.0589 0.0 0
M  V30 19 C -6.5959 0.8259 0.0 0
M  V30 END ATOM
M  V30 BEGIN BOND
M  V30 1 1 1 2
M  V30 2 2 2 3
M  V30 3 1 2 4
M  V30 4 1 3 5
M  V30 5 1 4 6
M  V30 6 2 4 7
M  V30 7 2 5 8
M  V30 8 1 6 9
M  V30 9 1 8 10
M  V30 10 2 9 11
M  V30 11 1 9 12
M  V30 12 1 10 13
M  V30 13 1 12 14
M  V30 14 1 14 15
M  V30 15 1 14 16
M  V30 16 1 15 17
M  V30 17 1 16 18
M  V30 18 1 17 19
M  V30 19 1 7 8
M  V30 20 1 18 19
M  V30 END BOND
M  V30 END CTAB
M  END
>  <Molecule Name>


>  <Name>
SPE_0062

>  <Name_tmp>


>  <Smiles>
CNc1cnc(c(c1)NC(=O)CC1CCCCC1)F

>  <Residue Name>
S62

$$$$
SPE_0063
Actelion Java MolfileCreator 2.0

  0  0  0  0  0  0              0 V3000
M  V30 BEGIN CTAB
M  V30 COUNTS 20 21 0 0 0
M  V30 BEGIN ATOM
M  V30 1 F 0.0 0.0 0.0 0
M  V30 2 C 1.2869 0.7556 0.0 0
M  V30 3 N 2.5739 0.0118 0.0 0
M  V30 4 C 1.2751 2.2669 0.0 0
M  V30 5 C 3.8609 0.7674 0.0 0
M  V30 6 N -0.0354 3.0226 0.0 0
M  V30 7 C 2.5621 3.0226 0.0 0
M  V30 8 C 3.8491 2.2787 0.0 0
M  V30 9 C -1.346 2.2787 0.0 0
M  V30 10 N 5.1361 3.0344 0.0 0
M  V30 11 O -1.3578 0.791 0.0 0
M  V30 12 C -2.6566 3.0344 0.0 0
M  V30 13 C 6.423 2.3023 0.0 0
M  V30 14 C 5.1243 4.5457 0.0 0
M  V30 15 C -3.9672 2.2905 0.0 0
M  V30 16 C -5.2777 3.0462 0.0 0
M  V30 17 C -3.979 0.8028 0.0 0
M  V30 18 C -6.5883 2.3142 0.0 0
M  V30 19 C -5.2896 0.059 0.0 0
M  V30 20 C -6.6002 0.8265 0.0 0
M  V30 END ATOM
M  V30 BEGIN BOND
M  V30 1 1 1 2
M  V30 2 2 2 3
M  V30 3 1 2 4
M  V30 4 1 3 5
M  V30 5 1 4 6
M  V30 6 2 4 7
M  V30 7 2 5 8
M  V30 8 1 6 9
M  V30 9 1 8 10
M  V30 10 2 9 11
M  V30 11 1 9 12
M  V30 12 1 10 13
M  V30 13 1 10 14
M  V30 14 1 12 15
M  V30 15 1 15 16
M  V30 16 1 15 17
M  V30 17 1 16 18
M  V30 18 1 17 19
M  V30 19 1 18 20
M  V30 20 1 7 8
M  V30 21 1 19 20
M  V30 END BOND
M  V30 END CTAB
M  END
>  <Molecule Name>


>  <Name>
SPE_0063

>  <Name_tmp>


>  <Smiles>
CN(c1cnc(c(c1)NC(=O)CC1CCCCC1)F)C

>  <Residue Name>
S63

$$$$
SPE_0064
Actelion Java MolfileCreator 2.0

  0  0  0  0  0  0              0 V3000
M  V30 BEGIN CTAB
M  V30 COUNTS 21 23 0 0 0
M  V30 BEGIN ATOM
M  V30 1 F 0.0 0.0 0.0 0
M  V30 2 C 1.2861 0.7551 0.0 0
M  V30 3 N 2.5723 0.0117 0.0 0
M  V30 4 C 1.2743 2.2655 0.0 0
M  V30 5 C 3.8585 0.7669 0.0 0
M  V30 6 N -0.0353 3.0207 0.0 0
M  V30 7 C 2.5605 3.0207 0.0 0
M  V30 8 C 3.8467 2.2773 0.0 0
M  V30 9 C -1.3451 2.2773 0.0 0
M  V30 10 C 2.5487 4.5311 0.0 0
M  V30 11 N 5.1328 3.0325 0.0 0
M  V30 12 O -1.3569 0.7905 0.0 0
M  V30 13 C -2.6549 3.0325 0.0 0
M  V30 14 N 3.8349 5.298 0.0 0
M  V30 15 C 5.121 4.5429 0.0 0
M  V30 16 C -3.9647 2.2891 0.0 0
M  V30 17 C -5.2744 3.0443 0.0 0
M  V30 18 C -3.9765 0.8023 0.0 0
M  V30 19 C -6.5842 2.3127 0.0 0
M  V30 20 C -5.2862 0.0589 0.0 0
M  V30 21 C -6.596 0.8259 0.0 0
M  V30 END ATOM
M  V30 BEGIN BOND
M  V30 1 1 1 2
M  V30 2 1 2 3
M  V30 3 2 2 4
M  V30 4 2 3 5
M  V30 5 1 4 6
M  V30 6 1 4 7
M  V30 7 1 5 8
M  V30 8 1 6 9
M  V30 9 2 7 10
M  V30 10 2 8 11
M  V30 11 2 9 12
M  V30 12 1 9 13
M  V30 13 1 10 14
M  V30 14 1 11 15
M  V30 15 1 13 16
M  V30 16 1 16 17
M  V30 17 1 16 18
M  V30 18 1 17 19
M  V30 19 1 18 20
M  V30 20 1 19 21
M  V30 21 1 7 8
M  V30 22 2 14 15
M  V30 23 1 20 21
M  V30 END BOND
M  V30 END CTAB
M  END
>  <Molecule Name>


>  <Name>
SPE_0064

>  <Name_tmp>


>  <Smiles>
O=C(Nc1c(F)ncc2c1cncn2)CC1CCCCC1

>  <Residue Name>
S64

$$$$
SPE_0065
Actelion Java MolfileCreator 2.0

  0  0  0  0  0  0              0 V3000
M  V30 BEGIN CTAB
M  V30 COUNTS 21 23 0 0 0
M  V30 BEGIN ATOM
M  V30 1 F 0.0 0.0 0.0 0
M  V30 2 C 1.2861 0.7551 0.0 0
M  V30 3 N 2.5723 0.0117 0.0 0
M  V30 4 C 1.2743 2.2655 0.0 0
M  V30 5 C 3.8585 0.7669 0.0 0
M  V30 6 N -0.0353 3.0207 0.0 0
M  V30 7 C 2.5605 3.0207 0.0 0
M  V30 8 C 3.8467 2.2773 0.0 0
M  V30 9 C -1.3451 2.2773 0.0 0
M  V30 10 C 2.5487 4.5311 0.0 0
M  V30 11 N 5.1328 3.0325 0.0 0
M  V30 12 O -1.3569 0.7905 0.0 0
M  V30 13 C -2.6549 3.0325 0.0 0
M  V30 14 C 3.8349 5.298 0.0 0
M  V30 15 C 5.121 4.5429 0.0 0
M  V30 16 C -3.9647 2.2891 0.0 0
M  V30 17 C -5.2744 3.0443 0.0 0
M  V30 18 C -3.9765 0.8023 0.0 0
M  V30 19 C -6.5842 2.3127 0.0 0
M  V30 20 C -5.2862 0.0589 0.0 0
M  V30 21 C -6.596 0.8259 0.0 0
M  V30 END ATOM
M  V30 BEGIN BOND
M  V30 1 1 1 2
M  V30 2 1 2 3
M  V30 3 2 2 4
M  V30 4 2 3 5
M  V30 5 1 4 6
M  V30 6 1 4 7
M  V30 7 1 5 8
M  V30 8 1 6 9
M  V30 9 2 7 10
M  V30 10 2 8 11
M  V30 11 2 9 12
M  V30 12 1 9 13
M  V30 13 1 10 14
M  V30 14 1 11 15
M  V30 15 1 13 16
M  V30 16 1 16 17
M  V30 17 1 16 18
M  V30 18 1 17 19
M  V30 19 1 18 20
M  V30 20 1 19 21
M  V30 21 1 7 8
M  V30 22 2 14 15
M  V30 23 1 20 21
M  V30 END BOND
M  V30 END CTAB
M  END
>  <Molecule Name>


>  <Name>
SPE_0065

>  <Name_tmp>


>  <Smiles>
O=C(Nc1c(F)ncc2c1cccn2)CC1CCCCC1

>  <Residue Name>
S65

$$$$
SPE_0066
Actelion Java MolfileCreator 2.0

  0  0  0  0  0  0              0 V3000
M  V30 BEGIN CTAB
M  V30 COUNTS 20 22 0 0 0
M  V30 BEGIN ATOM
M  V30 1 F 0.0 0.0 0.0 0
M  V30 2 C 1.2868 0.7556 0.0 0
M  V30 3 N 2.5737 0.0118 0.0 0
M  V30 4 C 1.275 2.2668 0.0 0
M  V30 5 C 3.8606 0.7674 0.0 0
M  V30 6 N -0.0354 3.0224 0.0 0
M  V30 7 C 2.5619 3.0224 0.0 0
M  V30 8 C 3.8488 2.2786 0.0 0
M  V30 9 C -1.3459 2.2786 0.0 0
M  V30 10 C 2.8571 4.4982 0.0 0
M  V30 11 N 4.9468 3.2939 0.0 0
M  V30 12 O -1.3577 0.791 0.0 0
M  V30 13 C -2.6564 3.0342 0.0 0
M  V30 14 C 4.3329 4.6634 0.0 0
M  V30 15 C -3.9669 2.2904 0.0 0
M  V30 16 C -5.2774 3.046 0.0 0
M  V30 17 C -3.9787 0.8028 0.0 0
M  V30 18 C -6.5879 2.314 0.0 0
M  V30 19 C -5.2892 0.059 0.0 0
M  V30 20 C -6.5997 0.8264 0.0 0
M  V30 END ATOM
M  V30 BEGIN BOND
M  V30 1 1 1 2
M  V30 2 2 2 3
M  V30 3 1 2 4
M  V30 4 1 3 5
M  V30 5 1 4 6
M  V30 6 2 4 7
M  V30 7 2 5 8
M  V30 8 1 6 9
M  V30 9 1 7 10
M  V30 10 1 8 11
M  V30 11 2 9 12
M  V30 12 1 9 13
M  V30 13 2 10 14
M  V30 14 1 13 15
M  V30 15 1 15 16
M  V30 16 1 15 17
M  V30 17 1 16 18
M  V30 18 1 17 19
M  V30 19 1 18 20
M  V30 20 1 7 8
M  V30 21 1 11 14
M  V30 22 1 19 20
M  V30 END BOND
M  V30 END CTAB
M  END
>  <Molecule Name>


>  <Name>
SPE_0066

>  <Name_tmp>


>  <Smiles>
O=C(Nc1c(F)ncc2c1cc[nH]2)CC1CCCCC1

>  <Residue Name>
S66

$$$$
SPE_0067
Actelion Java MolfileCreator 2.0

  0  0  0  0  0  0              0 V3000
M  V30 BEGIN CTAB
M  V30 COUNTS 20 22 0 0 0
M  V30 BEGIN ATOM
M  V30 1 F 0.0 0.0 0.0 0
M  V30 2 C 1.2868 0.7556 0.0 0
M  V30 3 N 2.5737 0.0118 0.0 0
M  V30 4 C 1.275 2.2668 0.0 0
M  V30 5 C 3.8606 0.7674 0.0 0
M  V30 6 N -0.0354 3.0224 0.0 0
M  V30 7 C 2.5619 3.0224 0.0 0
M  V30 8 N 3.8488 2.2786 0.0 0
M  V30 9 C -1.3459 2.2786 0.0 0
M  V30 10 C 2.8571 4.4982 0.0 0
M  V30 11 N 4.9468 3.2939 0.0 0
M  V30 12 O -1.3577 0.791 0.0 0
M  V30 13 C -2.6564 3.0342 0.0 0
M  V30 14 C 4.3329 4.6634 0.0 0
M  V30 15 C -3.9669 2.2904 0.0 0
M  V30 16 C -5.2774 3.046 0.0 0
M  V30 17 C -3.9787 0.8028 0.0 0
M  V30 18 C -6.5879 2.314 0.0 0
M  V30 19 C -5.2892 0.059 0.0 0
M  V30 20 C -6.5997 0.8264 0.0 0
M  V30 END ATOM
M  V30 BEGIN BOND
M  V30 1 1 1 2
M  V30 2 1 2 3
M  V30 3 2 2 4
M  V30 4 2 3 5
M  V30 5 1 4 6
M  V30 6 1 4 7
M  V30 7 1 5 8
M  V30 8 1 6 9
M  V30 9 2 7 10
M  V30 10 1 8 11
M  V30 11 2 9 12
M  V30 12 1 9 13
M  V30 13 1 10 14
M  V30 14 1 13 15
M  V30 15 1 15 16
M  V30 16 1 15 17
M  V30 17 1 16 18
M  V30 18 1 17 19
M  V30 19 1 18 20
M  V30 20 1 7 8
M  V30 21 2 11 14
M  V30 22 1 19 20
M  V30 END BOND
M  V30 END CTAB
M  END
>  <Molecule Name>


>  <Name>
SPE_0067

>  <Name_tmp>


>  <Smiles>
O=C(Nc1c(F)ncn2c1ccn2)CC1CCCCC1

>  <Residue Name>
S67

$$$$
SPE_0068
Actelion Java MolfileCreator 2.0

  0  0  0  0  0  0              0 V3000
M  V30 BEGIN CTAB
M  V30 COUNTS 20 22 0 0 0
M  V30 BEGIN ATOM
M  V30 1 F 0.0 0.0 0.0 0
M  V30 2 C 1.2868 0.7556 0.0 0
M  V30 3 N 2.5737 0.0118 0.0 0
M  V30 4 C 1.275 2.2668 0.0 0
M  V30 5 C 3.8606 0.7674 0.0 0
M  V30 6 N 2.5619 3.0224 0.0 0
M  V30 7 N -0.0354 3.0224 0.0 0
M  V30 8 C 3.8488 2.2786 0.0 0
M  V30 9 C 2.8571 4.4982 0.0 0
M  V30 10 C -1.3459 2.2786 0.0 0
M  V30 11 N 4.9468 3.2939 0.0 0
M  V30 12 C 4.3329 4.6634 0.0 0
M  V30 13 O -1.3577 0.791 0.0 0
M  V30 14 C -2.6564 3.0342 0.0 0
M  V30 15 C -3.9669 2.2904 0.0 0
M  V30 16 C -5.2774 3.046 0.0 0
M  V30 17 C -3.9787 0.8028 0.0 0
M  V30 18 C -6.5879 2.314 0.0 0
M  V30 19 C -5.2892 0.059 0.0 0
M  V30 20 C -6.5997 0.8264 0.0 0
M  V30 END ATOM
M  V30 BEGIN BOND
M  V30 1 1 1 2
M  V30 2 1 2 3
M  V30 3 2 2 4
M  V30 4 2 3 5
M  V30 5 1 4 6
M  V30 6 1 4 7
M  V30 7 1 5 8
M  V30 8 1 6 9
M  V30 9 1 7 10
M  V30 10 2 8 11
M  V30 11 2 9 12
M  V30 12 2 10 13
M  V30 13 1 10 14
M  V30 14 1 14 15
M  V30 15 1 15 16
M  V30 16 1 15 17
M  V30 17 1 16 18
M  V30 18 1 17 19
M  V30 19 1 18 20
M  V30 20 1 6 8
M  V30 21 1 11 12
M  V30 22 1 19 20
M  V30 END BOND
M  V30 END CTAB
M  END
>  <Molecule Name>


>  <Name>
SPE_0068

>  <Name_tmp>


>  <Smiles>
O=C(Nc1c(F)ncc2n1ccn2)CC1CCCCC1

>  <Residue Name>
S68

$$$$
SPE_0069
Actelion Java MolfileCreator 2.0

  0  0  0  0  0  0              0 V3000
M  V30 BEGIN CTAB
M  V30 COUNTS 20 22 0 0 0
M  V30 BEGIN ATOM
M  V30 1 F 0.0 0.0 0.0 0
M  V30 2 C 1.2868 0.7556 0.0 0
M  V30 3 N 2.5737 0.0118 0.0 0
M  V30 4 C 1.275 2.2668 0.0 0
M  V30 5 C 3.8606 0.7674 0.0 0
M  V30 6 N -0.0354 3.0224 0.0 0
M  V30 7 C 2.5619 3.0224 0.0 0
M  V30 8 C 3.8488 2.2786 0.0 0
M  V30 9 C -1.3459 2.2786 0.0 0
M  V30 10 N 2.8571 4.4982 0.0 0
M  V30 11 N 4.9468 3.2939 0.0 0
M  V30 12 O -1.3577 0.791 0.0 0
M  V30 13 C -2.6564 3.0342 0.0 0
M  V30 14 C 4.3329 4.6634 0.0 0
M  V30 15 C -3.9669 2.2904 0.0 0
M  V30 16 C -5.2774 3.046 0.0 0
M  V30 17 C -3.9787 0.8028 0.0 0
M  V30 18 C -6.5879 2.314 0.0 0
M  V30 19 C -5.2892 0.059 0.0 0
M  V30 20 C -6.5997 0.8264 0.0 0
M  V30 END ATOM
M  V30 BEGIN BOND
M  V30 1 1 1 2
M  V30 2 2 2 3
M  V30 3 1 2 4
M  V30 4 1 3 5
M  V30 5 1 4 6
M  V30 6 2 4 7
M  V30 7 2 5 8
M  V30 8 1 6 9
M  V30 9 1 7 10
M  V30 10 1 8 11
M  V30 11 2 9 12
M  V30 12 1 9 13
M  V30 13 2 10 14
M  V30 14 1 13 15
M  V30 15 1 15 16
M  V30 16 1 15 17
M  V30 17 1 16 18
M  V30 18 1 17 19
M  V30 19 1 18 20
M  V30 20 1 7 8
M  V30 21 1 11 14
M  V30 22 1 19 20
M  V30 END BOND
M  V30 END CTAB
M  END
>  <Molecule Name>


>  <Name>
SPE_0069

>  <Name_tmp>


>  <Smiles>
O=C(Nc1c(F)ncc2c1nc[nH]2)CC1CCCCC1

>  <Residue Name>
S69

$$$$
SPE_0070
Actelion Java MolfileCreator 2.0

  0  0  0  0  0  0              0 V3000
M  V30 BEGIN CTAB
M  V30 COUNTS 20 22 0 0 0
M  V30 BEGIN ATOM
M  V30 1 F 0.0 0.0 0.0 0
M  V30 2 C 1.2868 0.7556 0.0 0
M  V30 3 N 2.5737 0.0118 0.0 0
M  V30 4 C 1.275 2.2668 0.0 0
M  V30 5 C 3.8606 0.7674 0.0 0
M  V30 6 N -0.0354 3.0224 0.0 0
M  V30 7 C 2.5619 3.0224 0.0 0
M  V30 8 C 3.8488 2.2786 0.0 0
M  V30 9 C -1.3459 2.2786 0.0 0
M  V30 10 C 2.8571 4.4982 0.0 0
M  V30 11 N 4.9468 3.2939 0.0 0
M  V30 12 O -1.3577 0.791 0.0 0
M  V30 13 C -2.6564 3.0342 0.0 0
M  V30 14 N 4.3329 4.6634 0.0 0
M  V30 15 C -3.9669 2.2904 0.0 0
M  V30 16 C -5.2774 3.046 0.0 0
M  V30 17 C -3.9787 0.8028 0.0 0
M  V30 18 C -6.5879 2.314 0.0 0
M  V30 19 C -5.2892 0.059 0.0 0
M  V30 20 C -6.5997 0.8264 0.0 0
M  V30 END ATOM
M  V30 BEGIN BOND
M  V30 1 1 1 2
M  V30 2 2 2 3
M  V30 3 1 2 4
M  V30 4 1 3 5
M  V30 5 1 4 6
M  V30 6 2 4 7
M  V30 7 2 5 8
M  V30 8 1 6 9
M  V30 9 1 7 10
M  V30 10 1 8 11
M  V30 11 2 9 12
M  V30 12 1 9 13
M  V30 13 2 10 14
M  V30 14 1 13 15
M  V30 15 1 15 16
M  V30 16 1 15 17
M  V30 17 1 16 18
M  V30 18 1 17 19
M  V30 19 1 18 20
M  V30 20 1 7 8
M  V30 21 1 11 14
M  V30 22 1 19 20
M  V30 END BOND
M  V30 END CTAB
M  END
>  <Molecule Name>


>  <Name>
SPE_0070

>  <Name_tmp>


>  <Smiles>
O=C(Nc1c(F)ncc2c1cn[nH]2)CC1CCCCC1

>  <Residue Name>
S70

$$$$
SPE_0071
Actelion Java MolfileCreator 2.0

  0  0  0  0  0  0              0 V3000
M  V30 BEGIN CTAB
M  V30 COUNTS 21 23 0 0 0
M  V30 BEGIN ATOM
M  V30 1 F 0.0 0.0 0.0 0
M  V30 2 C 1.2861 0.7551 0.0 0
M  V30 3 N 2.5723 0.0117 0.0 0
M  V30 4 C 1.2743 2.2655 0.0 0
M  V30 5 C 3.8585 0.7669 0.0 0
M  V30 6 N -0.0353 3.0207 0.0 0
M  V30 7 C 2.5605 3.0207 0.0 0
M  V30 8 C 3.8467 2.2773 0.0 0
M  V30 9 C -1.3451 2.2773 0.0 0
M  V30 10 N 2.5487 4.5311 0.0 0
M  V30 11 N 5.1328 3.0325 0.0 0
M  V30 12 O -1.3569 0.7905 0.0 0
M  V30 13 C -2.6549 3.0325 0.0 0
M  V30 14 C 3.8349 5.298 0.0 0
M  V30 15 C 5.121 4.5429 0.0 0
M  V30 16 C -3.9647 2.2891 0.0 0
M  V30 17 C -5.2744 3.0443 0.0 0
M  V30 18 C -3.9765 0.8023 0.0 0
M  V30 19 C -6.5842 2.3127 0.0 0
M  V30 20 C -5.2862 0.0589 0.0 0
M  V30 21 C -6.596 0.8259 0.0 0
M  V30 END ATOM
M  V30 BEGIN BOND
M  V30 1 1 1 2
M  V30 2 1 2 3
M  V30 3 2 2 4
M  V30 4 2 3 5
M  V30 5 1 4 6
M  V30 6 1 4 7
M  V30 7 1 5 8
M  V30 8 1 6 9
M  V30 9 2 7 10
M  V30 10 2 8 11
M  V30 11 2 9 12
M  V30 12 1 9 13
M  V30 13 1 10 14
M  V30 14 1 11 15
M  V30 15 1 13 16
M  V30 16 1 16 17
M  V30 17 1 16 18
M  V30 18 1 17 19
M  V30 19 1 18 20
M  V30 20 1 19 21
M  V30 21 1 7 8
M  V30 22 2 14 15
M  V30 23 1 20 21
M  V30 END BOND
M  V30 END CTAB
M  END
>  <Molecule Name>


>  <Name>
SPE_0071

>  <Name_tmp>


>  <Smiles>
O=C(Nc1c(F)ncc2c1nccn2)CC1CCCCC1

>  <Residue Name>
S71

$$$$
SPE_0072
Actelion Java MolfileCreator 2.0

  0  0  0  0  0  0              0 V3000
M  V30 BEGIN CTAB
M  V30 COUNTS 19 21 0 0 0
M  V30 BEGIN ATOM
M  V30 1 O 0.0 0.0 0.0 0
M  V30 2 C -1.3108 -0.7321 0.0 0
M  V30 3 N -1.3226 -2.2201 0.0 0
M  V30 4 C -2.6217 0.0236 0.0 0
M  V30 5 C -2.6335 -2.9523 0.0 0
M  V30 6 C -0.0354 -2.9523 0.0 0
M  V30 7 C -3.9325 -0.7085 0.0 0
M  V30 8 C -2.6453 -4.4403 0.0 0
M  V30 9 C -0.0472 -4.4403 0.0 0
M  V30 10 C -5.3142 -0.0826 0.0 0
M  V30 11 C -4.0978 -2.1847 0.0 0
M  V30 12 N -1.358 -5.1843 0.0 0 VAL=4
M  V30 13 C -6.3298 -1.1809 0.0 0
M  V30 14 C -5.7866 1.358 0.0 0
M  V30 15 N -5.574 -2.4799 0.0 0
M  V30 16 C -1.3699 -6.6723 0.0 0
M  V30 17 N -7.806 -0.862 0.0 0
M  V30 18 C -7.2628 1.6769 0.0 0
M  V30 19 C -8.2784 0.5786 0.0 0
M  V30 END ATOM
M  V30 BEGIN BOND
M  V30 1 2 1 2
M  V30 2 1 2 3
M  V30 3 1 2 4
M  V30 4 1 3 5
M  V30 5 1 3 6
M  V30 6 1 4 7
M  V30 7 1 5 8
M  V30 8 1 6 9
M  V30 9 1 7 10
M  V30 10 2 7 11
M  V30 11 1 8 12
M  V30 12 2 10 13
M  V30 13 1 10 14
M  V30 14 1 11 15
M  V30 15 1 12 16
M  V30 16 1 13 17
M  V30 17 2 14 18
M  V30 18 2 17 19
M  V30 19 1 9 12
M  V30 20 1 13 15
M  V30 21 1 18 19
M  V30 END BOND
M  V30 END CTAB
M  END
>  <Molecule Name>
x1093

>  <Name>
SPE_0072

>  <Name_tmp>


>  <Smiles>
C[NH]1CCN(CC1)C(=O)Cc1c[nH]c2c1cccn2

>  <Residue Name>
S72

$$$$
SPE_0073
Actelion Java MolfileCreator 2.0

  0  0  0  0  0  0              0 V3000
M  V30 BEGIN CTAB
M  V30 COUNTS 19 21 0 0 0
M  V30 BEGIN ATOM
M  V30 1 O 0.0 0.0 0.0 0
M  V30 2 C -1.3108 -0.7321 0.0 0
M  V30 3 N -1.3226 -2.2201 0.0 0
M  V30 4 C -2.6217 0.0236 0.0 0
M  V30 5 C -2.6335 -2.9523 0.0 0
M  V30 6 C -0.0354 -2.9523 0.0 0
M  V30 7 C -3.9325 -0.7085 0.0 0
M  V30 8 C -2.6453 -4.4403 0.0 0
M  V30 9 C -0.0472 -4.4403 0.0 0
M  V30 10 C -5.3142 -0.0826 0.0 0
M  V30 11 C -4.0978 -2.1847 0.0 0
M  V30 12 N -1.358 -5.1843 0.0 0 VAL=4
M  V30 13 C -6.3298 -1.1809 0.0 0
M  V30 14 C -5.7866 1.358 0.0 0
M  V30 15 N -5.574 -2.4799 0.0 0
M  V30 16 C -1.3699 -6.6723 0.0 0
M  V30 17 N -7.806 -0.862 0.0 0
M  V30 18 N -7.2628 1.6769 0.0 0
M  V30 19 C -8.2784 0.5786 0.0 0
M  V30 END ATOM
M  V30 BEGIN BOND
M  V30 1 2 1 2
M  V30 2 1 2 3
M  V30 3 1 2 4
M  V30 4 1 3 5
M  V30 5 1 3 6
M  V30 6 1 4 7
M  V30 7 1 5 8
M  V30 8 1 6 9
M  V30 9 1 7 10
M  V30 10 2 7 11
M  V30 11 1 8 12
M  V30 12 2 10 13
M  V30 13 1 10 14
M  V30 14 1 11 15
M  V30 15 1 12 16
M  V30 16 1 13 17
M  V30 17 2 14 18
M  V30 18 2 17 19
M  V30 19 1 9 12
M  V30 20 1 13 15
M  V30 21 1 18 19
M  V30 END BOND
M  V30 END CTAB
M  END
>  <Molecule Name>


>  <Name>
SPE_0073

>  <Name_tmp>


>  <Smiles>
C[NH]1CCN(CC1)C(=O)Cc1c[nH]c2c1cncn2

>  <Residue Name>
S73

$$$$
SPE_0074
Actelion Java MolfileCreator 2.0

  0  0  0  0  0  0              0 V3000
M  V30 BEGIN CTAB
M  V30 COUNTS 19 21 0 0 0
M  V30 BEGIN ATOM
M  V30 1 O 0.0 0.0 0.0 0
M  V30 2 C -1.3108 -0.7321 0.0 0
M  V30 3 N -1.3226 -2.2201 0.0 0
M  V30 4 C -2.6217 0.0236 0.0 0
M  V30 5 C -2.6335 -2.9523 0.0 0
M  V30 6 C -0.0354 -2.9523 0.0 0
M  V30 7 C -3.9325 -0.7085 0.0 0
M  V30 8 C -2.6453 -4.4403 0.0 0
M  V30 9 C -0.0472 -4.4403 0.0 0
M  V30 10 C -5.3142 -0.0826 0.0 0
M  V30 11 C -4.0978 -2.1847 0.0 0
M  V30 12 N -1.358 -5.1843 0.0 0 VAL=4
M  V30 13 N -5.7866 1.358 0.0 0
M  V30 14 C -6.3298 -1.1809 0.0 0
M  V30 15 N -5.574 -2.4799 0.0 0
M  V30 16 C -1.3699 -6.6723 0.0 0
M  V30 17 C -7.2628 1.6769 0.0 0
M  V30 18 N -7.806 -0.862 0.0 0
M  V30 19 C -8.2784 0.5786 0.0 0
M  V30 END ATOM
M  V30 BEGIN BOND
M  V30 1 2 1 2
M  V30 2 1 2 3
M  V30 3 1 2 4
M  V30 4 1 3 5
M  V30 5 1 3 6
M  V30 6 1 4 7
M  V30 7 1 5 8
M  V30 8 1 6 9
M  V30 9 1 7 10
M  V30 10 2 7 11
M  V30 11 1 8 12
M  V30 12 2 10 13
M  V30 13 1 10 14
M  V30 14 1 11 15
M  V30 15 1 12 16
M  V30 16 1 13 17
M  V30 17 2 14 18
M  V30 18 2 17 19
M  V30 19 1 9 12
M  V30 20 1 14 15
M  V30 21 1 18 19
M  V30 END BOND
M  V30 END CTAB
M  END
>  <Molecule Name>


>  <Name>
SPE_0074

>  <Name_tmp>


>  <Smiles>
C[NH]1CCN(CC1)C(=O)Cc1c[nH]c2c1nccn2

>  <Residue Name>
S74

$$$$
SPE_0075
Actelion Java MolfileCreator 2.0

  0  0  0  0  0  0              0 V3000
M  V30 BEGIN CTAB
M  V30 COUNTS 20 22 0 0 0
M  V30 BEGIN ATOM
M  V30 1 F 0.0 0.0 0.0 0
M  V30 2 C -0.3172 1.4687 0.0 0
M  V30 3 N 0.6697 2.5849 0.0 0
M  V30 4 C -1.6919 2.0914 0.0 0
M  V30 5 C -0.0822 3.8891 0.0 0
M  V30 6 C -1.5509 3.5836 0.0 0
M  V30 7 C -2.9961 1.3512 0.0 0
M  V30 8 N 0.3642 5.3225 0.0 0
M  V30 9 C -2.5614 4.6998 0.0 0
M  V30 10 C -4.3003 2.1031 0.0 0
M  V30 11 C -0.6462 6.4387 0.0 0
M  V30 12 C -2.1149 6.1332 0.0 0
M  V30 13 O -4.3121 3.6071 0.0 0
M  V30 14 N -5.6045 1.3629 0.0 0
M  V30 15 C -6.9087 2.1149 0.0 0
M  V30 16 C -5.6163 -0.1174 0.0 0
M  V30 17 C -8.2129 1.3864 0.0 0
M  V30 18 C -6.9205 -0.8577 0.0 0
M  V30 19 N -8.2247 -0.0939 0.0 0 VAL=4
M  V30 20 C -9.5289 -0.8342 0.0 0
M  V30 END ATOM
M  V30 BEGIN BOND
M  V30 1 1 1 2
M  V30 2 1 2 3
M  V30 3 2 2 4
M  V30 4 1 3 5
M  V30 5 1 4 6
M  V30 6 1 4 7
M  V30 7 1 5 8
M  V30 8 1 6 9
M  V30 9 1 7 10
M  V30 10 2 8 11
M  V30 11 2 9 12
M  V30 12 2 10 13
M  V30 13 1 10 14
M  V30 14 1 14 15
M  V30 15 1 14 16
M  V30 16 1 15 17
M  V30 17 1 16 18
M  V30 18 1 17 19
M  V30 19 1 19 20
M  V30 20 2 5 6
M  V30 21 1 11 12
M  V30 22 1 18 19
M  V30 END BOND
M  V30 END CTAB
M  END
>  <Molecule Name>


>  <Name>
SPE_0075

>  <Name_tmp>


>  <Smiles>
C[NH]1CCN(CC1)C(=O)Cc1c(F)[nH]c2c1cccn2

>  <Residue Name>
S75

$$$$
SPE_0076
Actelion Java MolfileCreator 2.0

  0  0  0  0  0  0              0 V3000
M  V30 BEGIN CTAB
M  V30 COUNTS 20 22 0 0 0
M  V30 BEGIN ATOM
M  V30 1 F 0.0 0.0 0.0 0
M  V30 2 C -0.3172 1.4687 0.0 0
M  V30 3 N 0.6697 2.5849 0.0 0
M  V30 4 C -1.6919 2.0914 0.0 0
M  V30 5 C -0.0822 3.8891 0.0 0
M  V30 6 C -1.5509 3.5836 0.0 0
M  V30 7 C -2.9961 1.3512 0.0 0
M  V30 8 N 0.3642 5.3225 0.0 0
M  V30 9 C -2.5614 4.6998 0.0 0
M  V30 10 C -4.3003 2.1031 0.0 0
M  V30 11 C -0.6462 6.4387 0.0 0
M  V30 12 N -2.1149 6.1332 0.0 0
M  V30 13 O -4.3121 3.6071 0.0 0
M  V30 14 N -5.6045 1.3629 0.0 0
M  V30 15 C -6.9087 2.1149 0.0 0
M  V30 16 C -5.6163 -0.1174 0.0 0
M  V30 17 C -8.2129 1.3864 0.0 0
M  V30 18 C -6.9205 -0.8577 0.0 0
M  V30 19 N -8.2247 -0.0939 0.0 0 VAL=4
M  V30 20 C -9.5289 -0.8342 0.0 0
M  V30 END ATOM
M  V30 BEGIN BOND
M  V30 1 1 1 2
M  V30 2 1 2 3
M  V30 3 2 2 4
M  V30 4 1 3 5
M  V30 5 1 4 6
M  V30 6 1 4 7
M  V30 7 1 5 8
M  V30 8 1 6 9
M  V30 9 1 7 10
M  V30 10 2 8 11
M  V30 11 2 9 12
M  V30 12 2 10 13
M  V30 13 1 10 14
M  V30 14 1 14 15
M  V30 15 1 14 16
M  V30 16 1 15 17
M  V30 17 1 16 18
M  V30 18 1 17 19
M  V30 19 1 19 20
M  V30 20 2 5 6
M  V30 21 1 11 12
M  V30 22 1 18 19
M  V30 END BOND
M  V30 END CTAB
M  END
>  <Molecule Name>


>  <Name>
SPE_0076

>  <Name_tmp>


>  <Smiles>
C[NH]1CCN(CC1)C(=O)Cc1c(F)[nH]c2c1cncn2

>  <Residue Name>
S76

$$$$
SPE_0077
Actelion Java MolfileCreator 2.0

  0  0  0  0  0  0              0 V3000
M  V30 BEGIN CTAB
M  V30 COUNTS 20 22 0 0 0
M  V30 BEGIN ATOM
M  V30 1 F 0.0 0.0 0.0 0
M  V30 2 C -0.3172 1.4687 0.0 0
M  V30 3 N 0.6697 2.5849 0.0 0
M  V30 4 C -1.6919 2.0914 0.0 0
M  V30 5 C -0.0822 3.8891 0.0 0
M  V30 6 C -1.5509 3.5836 0.0 0
M  V30 7 C -2.9961 1.3512 0.0 0
M  V30 8 N 0.3642 5.3225 0.0 0
M  V30 9 N -2.5614 4.6998 0.0 0
M  V30 10 C -4.3003 2.1031 0.0 0
M  V30 11 C -0.6462 6.4387 0.0 0
M  V30 12 C -2.1149 6.1332 0.0 0
M  V30 13 O -4.3121 3.6071 0.0 0
M  V30 14 N -5.6045 1.3629 0.0 0
M  V30 15 C -6.9087 2.1149 0.0 0
M  V30 16 C -5.6163 -0.1174 0.0 0
M  V30 17 C -8.2129 1.3864 0.0 0
M  V30 18 C -6.9205 -0.8577 0.0 0
M  V30 19 N -8.2247 -0.0939 0.0 0 VAL=4
M  V30 20 C -9.5289 -0.8342 0.0 0
M  V30 END ATOM
M  V30 BEGIN BOND
M  V30 1 1 1 2
M  V30 2 1 2 3
M  V30 3 2 2 4
M  V30 4 1 3 5
M  V30 5 1 4 6
M  V30 6 1 4 7
M  V30 7 1 5 8
M  V30 8 1 6 9
M  V30 9 1 7 10
M  V30 10 2 8 11
M  V30 11 2 9 12
M  V30 12 2 10 13
M  V30 13 1 10 14
M  V30 14 1 14 15
M  V30 15 1 14 16
M  V30 16 1 15 17
M  V30 17 1 16 18
M  V30 18 1 17 19
M  V30 19 1 19 20
M  V30 20 2 5 6
M  V30 21 1 11 12
M  V30 22 1 18 19
M  V30 END BOND
M  V30 END CTAB
M  END
>  <Molecule Name>


>  <Name>
SPE_0077

>  <Name_tmp>


>  <Smiles>
C[NH]1CCN(CC1)C(=O)Cc1c(F)[nH]c2c1nccn2

>  <Residue Name>
S77

$$$$
SPE_0078
Actelion Java MolfileCreator 2.0

  0  0  0  0  0  0              0 V3000
M  V30 BEGIN CTAB
M  V30 COUNTS 17 18 0 0 0
M  V30 BEGIN ATOM
M  V30 1 Cl 0.0 0.0 0.0 0
M  V30 2 C 1.2862 0.7552 0.0 0
M  V30 3 N 2.5724 0.0118 0.0 0
M  V30 4 C 1.2744 2.2656 0.0 0
M  V30 5 C 3.8587 0.767 0.0 0
M  V30 6 N -0.0354 3.0208 0.0 0
M  V30 7 C 2.5606 3.0208 0.0 0
M  V30 8 C 3.8469 2.2774 0.0 0
M  V30 9 C -1.3452 2.2774 0.0 0
M  V30 10 O -1.357 0.7906 0.0 0
M  V30 11 N -2.655 3.0326 0.0 0
M  V30 12 C -3.9649 2.2892 0.0 0
M  V30 13 C -5.2747 3.0444 0.0 0
M  V30 14 C -3.9767 0.8024 0.0 0
M  V30 15 C -6.5845 2.3128 0.0 0
M  V30 16 C -5.2865 0.059 0.0 0
M  V30 17 C -6.5963 0.826 0.0 0
M  V30 END ATOM
M  V30 BEGIN BOND
M  V30 1 1 1 2
M  V30 2 2 2 3
M  V30 3 1 2 4
M  V30 4 1 3 5
M  V30 5 1 4 6
M  V30 6 2 4 7
M  V30 7 2 5 8
M  V30 8 1 6 9
M  V30 9 2 9 10
M  V30 10 1 9 11
M  V30 11 1 11 12
M  V30 12 2 12 13
M  V30 13 1 12 14
M  V30 14 1 13 15
M  V30 15 2 14 16
M  V30 16 2 15 17
M  V30 17 1 7 8
M  V30 18 1 16 17
M  V30 END BOND
M  V30 END CTAB
M  END
>  <Molecule Name>


>  <Name>
SPE_0078

>  <Name_tmp>


>  <Smiles>
O=C(Nc1cccnc1Cl)Nc1ccccc1

>  <Residue Name>
S78

$$$$
SPE_0079
Actelion Java MolfileCreator 2.0

  0  0  0  0  0  0              0 V3000
M  V30 BEGIN CTAB
M  V30 COUNTS 17 18 0 0 0
M  V30 BEGIN ATOM
M  V30 1 Cl 0.0 0.0 0.0 0
M  V30 2 C 1.2862 0.7552 0.0 0
M  V30 3 N 2.5724 0.0118 0.0 0
M  V30 4 C 1.2744 2.2656 0.0 0
M  V30 5 C 3.8587 0.767 0.0 0
M  V30 6 N -0.0354 3.0208 0.0 0
M  V30 7 C 2.5606 3.0208 0.0 0
M  V30 8 C 3.8469 2.2774 0.0 0
M  V30 9 C -1.3452 2.2774 0.0 0
M  V30 10 O -1.357 0.7906 0.0 0
M  V30 11 C -2.655 3.0326 0.0 0
M  V30 12 C -3.9649 2.2892 0.0 0
M  V30 13 C -5.2747 3.0444 0.0 0
M  V30 14 C -3.9767 0.8024 0.0 0
M  V30 15 C -6.5845 2.3128 0.0 0
M  V30 16 C -5.2865 0.059 0.0 0
M  V30 17 C -6.5963 0.826 0.0 0
M  V30 END ATOM
M  V30 BEGIN BOND
M  V30 1 1 1 2
M  V30 2 2 2 3
M  V30 3 1 2 4
M  V30 4 1 3 5
M  V30 5 1 4 6
M  V30 6 2 4 7
M  V30 7 2 5 8
M  V30 8 1 6 9
M  V30 9 2 9 10
M  V30 10 1 9 11
M  V30 11 1 11 12
M  V30 12 1 12 13
M  V30 13 1 12 14
M  V30 14 1 13 15
M  V30 15 1 14 16
M  V30 16 1 15 17
M  V30 17 1 7 8
M  V30 18 1 16 17
M  V30 END BOND
M  V30 END CTAB
M  END
>  <Molecule Name>


>  <Name>
SPE_0079

>  <Name_tmp>


>  <Smiles>
O=C(Nc1cccnc1Cl)CC1CCCCC1

>  <Residue Name>
S79

$$$$
SPE_0080
Actelion Java MolfileCreator 2.0

  0  0  0  0  0  0              0 V3000
M  V30 BEGIN CTAB
M  V30 COUNTS 20 22 0 0 0
M  V30 BEGIN ATOM
M  V30 1 Cl 0.0 0.0 0.0 0
M  V30 2 C -0.3172 1.4687 0.0 0
M  V30 3 N 0.6697 2.5849 0.0 0
M  V30 4 C -1.6919 2.0914 0.0 0
M  V30 5 C -0.0822 3.8891 0.0 0
M  V30 6 C -1.5509 3.5836 0.0 0
M  V30 7 C -2.9961 1.3512 0.0 0
M  V30 8 N 0.3642 5.3225 0.0 0
M  V30 9 C -2.5614 4.6998 0.0 0
M  V30 10 C -4.3003 2.1031 0.0 0
M  V30 11 C -0.6462 6.4387 0.0 0
M  V30 12 C -2.1149 6.1332 0.0 0
M  V30 13 O -4.3121 3.6071 0.0 0
M  V30 14 N -5.6045 1.3629 0.0 0
M  V30 15 C -6.9087 2.1149 0.0 0
M  V30 16 C -5.6163 -0.1174 0.0 0
M  V30 17 C -8.2129 1.3864 0.0 0
M  V30 18 C -6.9205 -0.8577 0.0 0
M  V30 19 N -8.2247 -0.0939 0.0 0 VAL=4
M  V30 20 C -9.5289 -0.8342 0.0 0
M  V30 END ATOM
M  V30 BEGIN BOND
M  V30 1 1 1 2
M  V30 2 1 2 3
M  V30 3 2 2 4
M  V30 4 1 3 5
M  V30 5 1 4 6
M  V30 6 1 4 7
M  V30 7 1 5 8
M  V30 8 1 6 9
M  V30 9 1 7 10
M  V30 10 2 8 11
M  V30 11 2 9 12
M  V30 12 2 10 13
M  V30 13 1 10 14
M  V30 14 1 14 15
M  V30 15 1 14 16
M  V30 16 1 15 17
M  V30 17 1 16 18
M  V30 18 1 17 19
M  V30 19 1 19 20
M  V30 20 2 5 6
M  V30 21 1 11 12
M  V30 22 1 18 19
M  V30 END BOND
M  V30 END CTAB
M  END
>  <Molecule Name>


>  <Name>
SPE_0080

>  <Name_tmp>


>  <Smiles>
C[NH]1CCN(CC1)C(=O)Cc1c(Cl)[nH]c2c1cccn2

>  <Residue Name>
S80

$$$$
SPE_0081
Actelion Java MolfileCreator 2.0

  0  0  0  0  0  0              0 V3000
M  V30 BEGIN CTAB
M  V30 COUNTS 19 21 0 0 0
M  V30 BEGIN ATOM
M  V30 1 O 0.0 0.0 0.0 0
M  V30 2 C -1.3108 -0.7321 0.0 0
M  V30 3 N -1.3226 -2.2201 0.0 0
M  V30 4 N -2.6217 0.0236 0.0 0
M  V30 5 C -2.6335 -2.9523 0.0 0
M  V30 6 C -0.0354 -2.9523 0.0 0
M  V30 7 C -3.9325 -0.7085 0.0 0
M  V30 8 C -2.6453 -4.4403 0.0 0
M  V30 9 C -0.0472 -4.4403 0.0 0
M  V30 10 C -5.3142 -0.0826 0.0 0
M  V30 11 C -4.0978 -2.1847 0.0 0
M  V30 12 N -1.358 -5.1843 0.0 0 VAL=4
M  V30 13 C -6.3298 -1.1809 0.0 0
M  V30 14 C -5.7866 1.358 0.0 0
M  V30 15 N -5.574 -2.4799 0.0 0
M  V30 16 C -1.3699 -6.6723 0.0 0
M  V30 17 N -7.806 -0.862 0.0 0
M  V30 18 C -7.2628 1.6769 0.0 0
M  V30 19 C -8.2784 0.5786 0.0 0
M  V30 END ATOM
M  V30 BEGIN BOND
M  V30 1 2 1 2
M  V30 2 1 2 3
M  V30 3 1 2 4
M  V30 4 1 3 5
M  V30 5 1 3 6
M  V30 6 1 4 7
M  V30 7 1 5 8
M  V30 8 1 6 9
M  V30 9 1 7 10
M  V30 10 2 7 11
M  V30 11 1 8 12
M  V30 12 2 10 13
M  V30 13 1 10 14
M  V30 14 1 11 15
M  V30 15 1 12 16
M  V30 16 1 13 17
M  V30 17 2 14 18
M  V30 18 2 17 19
M  V30 19 1 9 12
M  V30 20 1 13 15
M  V30 21 1 18 19
M  V30 END BOND
M  V30 END CTAB
M  END
>  <Molecule Name>


>  <Name>
SPE_0081

>  <Name_tmp>


>  <Smiles>
C[NH]1CCN(CC1)C(=O)Nc1c[nH]c2c1cccn2

>  <Residue Name>
S81

$$$$
SPE_0082
Actelion Java MolfileCreator 2.0

  0  0  0  0  0  0              0 V3000
M  V30 BEGIN CTAB
M  V30 COUNTS 19 21 0 0 0
M  V30 BEGIN ATOM
M  V30 1 O 0.0 0.0 0.0 0
M  V30 2 C -1.3108 -0.7321 0.0 0
M  V30 3 N -1.3226 -2.2201 0.0 0
M  V30 4 N -2.6217 0.0236 0.0 0
M  V30 5 C -2.6335 -2.9523 0.0 0
M  V30 6 C -0.0354 -2.9523 0.0 0
M  V30 7 C -3.9325 -0.7085 0.0 0
M  V30 8 C -2.6453 -4.4403 0.0 0
M  V30 9 C -0.0472 -4.4403 0.0 0
M  V30 10 C -5.3142 -0.0826 0.0 0
M  V30 11 C -4.0978 -2.1847 0.0 0
M  V30 12 N -1.358 -5.1843 0.0 0 VAL=4
M  V30 13 C -6.3298 -1.1809 0.0 0
M  V30 14 C -5.7866 1.358 0.0 0
M  V30 15 N -5.574 -2.4799 0.0 0
M  V30 16 C -1.3699 -6.6723 0.0 0
M  V30 17 N -7.806 -0.862 0.0 0
M  V30 18 N -7.2628 1.6769 0.0 0
M  V30 19 C -8.2784 0.5786 0.0 0
M  V30 END ATOM
M  V30 BEGIN BOND
M  V30 1 2 1 2
M  V30 2 1 2 3
M  V30 3 1 2 4
M  V30 4 1 3 5
M  V30 5 1 3 6
M  V30 6 1 4 7
M  V30 7 1 5 8
M  V30 8 1 6 9
M  V30 9 1 7 10
M  V30 10 2 7 11
M  V30 11 1 8 12
M  V30 12 2 10 13
M  V30 13 1 10 14
M  V30 14 1 11 15
M  V30 15 1 12 16
M  V30 16 1 13 17
M  V30 17 2 14 18
M  V30 18 2 17 19
M  V30 19 1 9 12
M  V30 20 1 13 15
M  V30 21 1 18 19
M  V30 END BOND
M  V30 END CTAB
M  END
>  <Molecule Name>


>  <Name>
SPE_0082

>  <Name_tmp>


>  <Smiles>
C[NH]1CCN(CC1)C(=O)Nc1c[nH]c2c1cncn2

>  <Residue Name>
S82

$$$$
SPE_0083
Actelion Java MolfileCreator 2.0

  0  0  0  0  0  0              0 V3000
M  V30 BEGIN CTAB
M  V30 COUNTS 19 21 0 0 0
M  V30 BEGIN ATOM
M  V30 1 O 0.0 0.0 0.0 0
M  V30 2 C -1.3108 -0.7321 0.0 0
M  V30 3 N -1.3226 -2.2201 0.0 0
M  V30 4 N -2.6217 0.0236 0.0 0
M  V30 5 C -2.6335 -2.9523 0.0 0
M  V30 6 C -0.0354 -2.9523 0.0 0
M  V30 7 C -3.9325 -0.7085 0.0 0
M  V30 8 C -2.6453 -4.4403 0.0 0
M  V30 9 C -0.0472 -4.4403 0.0 0
M  V30 10 C -5.3142 -0.0826 0.0 0
M  V30 11 C -4.0978 -2.1847 0.0 0
M  V30 12 N -1.358 -5.1843 0.0 0 VAL=4
M  V30 13 N -5.7866 1.358 0.0 0
M  V30 14 C -6.3298 -1.1809 0.0 0
M  V30 15 N -5.574 -2.4799 0.0 0
M  V30 16 C -1.3699 -6.6723 0.0 0
M  V30 17 C -7.2628 1.6769 0.0 0
M  V30 18 N -7.806 -0.862 0.0 0
M  V30 19 C -8.2784 0.5786 0.0 0
M  V30 END ATOM
M  V30 BEGIN BOND
M  V30 1 2 1 2
M  V30 2 1 2 3
M  V30 3 1 2 4
M  V30 4 1 3 5
M  V30 5 1 3 6
M  V30 6 1 4 7
M  V30 7 1 5 8
M  V30 8 1 6 9
M  V30 9 1 7 10
M  V30 10 2 7 11
M  V30 11 1 8 12
M  V30 12 2 10 13
M  V30 13 1 10 14
M  V30 14 1 11 15
M  V30 15 1 12 16
M  V30 16 1 13 17
M  V30 17 2 14 18
M  V30 18 2 17 19
M  V30 19 1 9 12
M  V30 20 1 14 15
M  V30 21 1 18 19
M  V30 END BOND
M  V30 END CTAB
M  END
>  <Molecule Name>


>  <Name>
SPE_0083

>  <Name_tmp>


>  <Smiles>
C[NH]1CCN(CC1)C(=O)Nc1c[nH]c2c1nccn2

>  <Residue Name>
S83

$$$$
SPE_0084
Actelion Java MolfileCreator 2.0

  0  0  0  0  0  0              0 V3000
M  V30 BEGIN CTAB
M  V30 COUNTS 20 22 0 0 0
M  V30 BEGIN ATOM
M  V30 1 F 0.0 0.0 0.0 0
M  V30 2 C -0.3172 1.4687 0.0 0
M  V30 3 N 0.6697 2.5849 0.0 0
M  V30 4 C -1.6919 2.0914 0.0 0
M  V30 5 C -0.0822 3.8891 0.0 0
M  V30 6 N -2.9961 1.3512 0.0 0
M  V30 7 C -1.5509 3.5836 0.0 0
M  V30 8 N 0.3642 5.3225 0.0 0
M  V30 9 C -4.3003 2.1031 0.0 0
M  V30 10 C -2.5614 4.6998 0.0 0
M  V30 11 C -0.6462 6.4387 0.0 0
M  V30 12 O -4.3121 3.6071 0.0 0
M  V30 13 N -5.6045 1.3629 0.0 0
M  V30 14 C -2.1149 6.1332 0.0 0
M  V30 15 C -6.9087 2.1149 0.0 0
M  V30 16 C -5.6163 -0.1174 0.0 0
M  V30 17 C -8.2129 1.3864 0.0 0
M  V30 18 C -6.9205 -0.8577 0.0 0
M  V30 19 N -8.2247 -0.0939 0.0 0 VAL=4
M  V30 20 C -9.5289 -0.8342 0.0 0
M  V30 END ATOM
M  V30 BEGIN BOND
M  V30 1 1 1 2
M  V30 2 1 2 3
M  V30 3 2 2 4
M  V30 4 1 3 5
M  V30 5 1 4 6
M  V30 6 1 4 7
M  V30 7 1 5 8
M  V30 8 1 6 9
M  V30 9 1 7 10
M  V30 10 2 8 11
M  V30 11 2 9 12
M  V30 12 1 9 13
M  V30 13 2 10 14
M  V30 14 1 13 15
M  V30 15 1 13 16
M  V30 16 1 15 17
M  V30 17 1 16 18
M  V30 18 1 17 19
M  V30 19 1 19 20
M  V30 20 2 5 7
M  V30 21 1 11 14
M  V30 22 1 18 19
M  V30 END BOND
M  V30 END CTAB
M  END
>  <Molecule Name>


>  <Name>
SPE_0084

>  <Name_tmp>


>  <Smiles>
C[NH]1CCN(CC1)C(=O)Nc1c(F)[nH]c2c1cccn2

>  <Residue Name>
S84

$$$$
SPE_0085
Actelion Java MolfileCreator 2.0

  0  0  0  0  0  0              0 V3000
M  V30 BEGIN CTAB
M  V30 COUNTS 20 22 0 0 0
M  V30 BEGIN ATOM
M  V30 1 F 0.0 0.0 0.0 0
M  V30 2 C -0.3172 1.4687 0.0 0
M  V30 3 N 0.6697 2.5849 0.0 0
M  V30 4 C -1.6919 2.0914 0.0 0
M  V30 5 C -0.0822 3.8891 0.0 0
M  V30 6 N -2.9961 1.3512 0.0 0
M  V30 7 C -1.5509 3.5836 0.0 0
M  V30 8 N 0.3642 5.3225 0.0 0
M  V30 9 C -4.3003 2.1031 0.0 0
M  V30 10 C -2.5614 4.6998 0.0 0
M  V30 11 C -0.6462 6.4387 0.0 0
M  V30 12 O -4.3121 3.6071 0.0 0
M  V30 13 N -5.6045 1.3629 0.0 0
M  V30 14 N -2.1149 6.1332 0.0 0
M  V30 15 C -6.9087 2.1149 0.0 0
M  V30 16 C -5.6163 -0.1174 0.0 0
M  V30 17 C -8.2129 1.3864 0.0 0
M  V30 18 C -6.9205 -0.8577 0.0 0
M  V30 19 N -8.2247 -0.0939 0.0 0 VAL=4
M  V30 20 C -9.5289 -0.8342 0.0 0
M  V30 END ATOM
M  V30 BEGIN BOND
M  V30 1 1 1 2
M  V30 2 1 2 3
M  V30 3 2 2 4
M  V30 4 1 3 5
M  V30 5 1 4 6
M  V30 6 1 4 7
M  V30 7 1 5 8
M  V30 8 1 6 9
M  V30 9 1 7 10
M  V30 10 2 8 11
M  V30 11 2 9 12
M  V30 12 1 9 13
M  V30 13 2 10 14
M  V30 14 1 13 15
M  V30 15 1 13 16
M  V30 16 1 15 17
M  V30 17 1 16 18
M  V30 18 1 17 19
M  V30 19 1 19 20
M  V30 20 2 5 7
M  V30 21 1 11 14
M  V30 22 1 18 19
M  V30 END BOND
M  V30 END CTAB
M  END
>  <Molecule Name>


>  <Name>
SPE_0085

>  <Name_tmp>


>  <Smiles>
C[NH]1CCN(CC1)C(=O)Nc1c(F)[nH]c2c1cncn2

>  <Residue Name>
S85

$$$$
SPE_0086
Actelion Java MolfileCreator 2.0

  0  0  0  0  0  0              0 V3000
M  V30 BEGIN CTAB
M  V30 COUNTS 20 22 0 0 0
M  V30 BEGIN ATOM
M  V30 1 F 0.0 0.0 0.0 0
M  V30 2 C -0.3172 1.4687 0.0 0
M  V30 3 N 0.6697 2.5849 0.0 0
M  V30 4 C -1.6919 2.0914 0.0 0
M  V30 5 C -0.0822 3.8891 0.0 0
M  V30 6 N -2.9961 1.3512 0.0 0
M  V30 7 C -1.5509 3.5836 0.0 0
M  V30 8 N 0.3642 5.3225 0.0 0
M  V30 9 C -4.3003 2.1031 0.0 0
M  V30 10 N -2.5614 4.6998 0.0 0
M  V30 11 C -0.6462 6.4387 0.0 0
M  V30 12 O -4.3121 3.6071 0.0 0
M  V30 13 N -5.6045 1.3629 0.0 0
M  V30 14 C -2.1149 6.1332 0.0 0
M  V30 15 C -6.9087 2.1149 0.0 0
M  V30 16 C -5.6163 -0.1174 0.0 0
M  V30 17 C -8.2129 1.3864 0.0 0
M  V30 18 C -6.9205 -0.8577 0.0 0
M  V30 19 N -8.2247 -0.0939 0.0 0 VAL=4
M  V30 20 C -9.5289 -0.8342 0.0 0
M  V30 END ATOM
M  V30 BEGIN BOND
M  V30 1 1 1 2
M  V30 2 1 2 3
M  V30 3 2 2 4
M  V30 4 1 3 5
M  V30 5 1 4 6
M  V30 6 1 4 7
M  V30 7 1 5 8
M  V30 8 1 6 9
M  V30 9 1 7 10
M  V30 10 2 8 11
M  V30 11 2 9 12
M  V30 12 1 9 13
M  V30 13 2 10 14
M  V30 14 1 13 15
M  V30 15 1 13 16
M  V30 16 1 15 17
M  V30 17 1 16 18
M  V30 18 1 17 19
M  V30 19 1 19 20
M  V30 20 2 5 7
M  V30 21 1 11 14
M  V30 22 1 18 19
M  V30 END BOND
M  V30 END CTAB
M  END
>  <Molecule Name>


>  <Name>
SPE_0086

>  <Name_tmp>


>  <Smiles>
C[NH]1CCN(CC1)C(=O)Nc1c(F)[nH]c2c1nccn2

>  <Residue Name>
S86

$$$$
SPE_0087
Actelion Java MolfileCreator 2.0

  0  0  0  0  0  0              0 V3000
M  V30 BEGIN CTAB
M  V30 COUNTS 20 22 0 0 0
M  V30 BEGIN ATOM
M  V30 1 Cl 0.0 0.0 0.0 0
M  V30 2 C -0.3172 1.4687 0.0 0
M  V30 3 N 0.6697 2.5849 0.0 0
M  V30 4 C -1.6919 2.0914 0.0 0
M  V30 5 C -0.0822 3.8891 0.0 0
M  V30 6 N -2.9961 1.3512 0.0 0
M  V30 7 C -1.5509 3.5836 0.0 0
M  V30 8 N 0.3642 5.3225 0.0 0
M  V30 9 C -4.3003 2.1031 0.0 0
M  V30 10 C -2.5614 4.6998 0.0 0
M  V30 11 C -0.6462 6.4387 0.0 0
M  V30 12 O -4.3121 3.6071 0.0 0
M  V30 13 N -5.6045 1.3629 0.0 0
M  V30 14 N -2.1149 6.1332 0.0 0
M  V30 15 C -6.9087 2.1149 0.0 0
M  V30 16 C -5.6163 -0.1174 0.0 0
M  V30 17 C -8.2129 1.3864 0.0 0
M  V30 18 C -6.9205 -0.8577 0.0 0
M  V30 19 N -8.2247 -0.0939 0.0 0 VAL=4
M  V30 20 C -9.5289 -0.8342 0.0 0
M  V30 END ATOM
M  V30 BEGIN BOND
M  V30 1 1 1 2
M  V30 2 1 2 3
M  V30 3 2 2 4
M  V30 4 1 3 5
M  V30 5 1 4 6
M  V30 6 1 4 7
M  V30 7 1 5 8
M  V30 8 1 6 9
M  V30 9 1 7 10
M  V30 10 2 8 11
M  V30 11 2 9 12
M  V30 12 1 9 13
M  V30 13 2 10 14
M  V30 14 1 13 15
M  V30 15 1 13 16
M  V30 16 1 15 17
M  V30 17 1 16 18
M  V30 18 1 17 19
M  V30 19 1 19 20
M  V30 20 2 5 7
M  V30 21 1 11 14
M  V30 22 1 18 19
M  V30 END BOND
M  V30 END CTAB
M  END
>  <Molecule Name>


>  <Name>
SPE_0087

>  <Name_tmp>


>  <Smiles>
C[NH]1CCN(CC1)C(=O)Nc1c(Cl)[nH]c2c1cncn2

>  <Residue Name>
S87

$$$$
SPE_0088
Actelion Java MolfileCreator 2.0

  0  0  0  0  0  0              0 V3000
M  V30 BEGIN CTAB
M  V30 COUNTS 20 22 0 0 0
M  V30 BEGIN ATOM
M  V30 1 Cl 0.0 0.0 0.0 0
M  V30 2 C -0.3172 1.4687 0.0 0
M  V30 3 N 0.6697 2.5849 0.0 0
M  V30 4 C -1.6919 2.0914 0.0 0
M  V30 5 C -0.0822 3.8891 0.0 0
M  V30 6 N -2.9961 1.3512 0.0 0
M  V30 7 C -1.5509 3.5836 0.0 0
M  V30 8 N 0.3642 5.3225 0.0 0
M  V30 9 C -4.3003 2.1031 0.0 0
M  V30 10 N -2.5614 4.6998 0.0 0
M  V30 11 C -0.6462 6.4387 0.0 0
M  V30 12 O -4.3121 3.6071 0.0 0
M  V30 13 N -5.6045 1.3629 0.0 0
M  V30 14 C -2.1149 6.1332 0.0 0
M  V30 15 C -6.9087 2.1149 0.0 0
M  V30 16 C -5.6163 -0.1174 0.0 0
M  V30 17 C -8.2129 1.3864 0.0 0
M  V30 18 C -6.9205 -0.8577 0.0 0
M  V30 19 N -8.2247 -0.0939 0.0 0 VAL=4
M  V30 20 C -9.5289 -0.8342 0.0 0
M  V30 END ATOM
M  V30 BEGIN BOND
M  V30 1 1 1 2
M  V30 2 1 2 3
M  V30 3 2 2 4
M  V30 4 1 3 5
M  V30 5 1 4 6
M  V30 6 1 4 7
M  V30 7 1 5 8
M  V30 8 1 6 9
M  V30 9 1 7 10
M  V30 10 2 8 11
M  V30 11 2 9 12
M  V30 12 1 9 13
M  V30 13 2 10 14
M  V30 14 1 13 15
M  V30 15 1 13 16
M  V30 16 1 15 17
M  V30 17 1 16 18
M  V30 18 1 17 19
M  V30 19 1 19 20
M  V30 20 2 5 7
M  V30 21 1 11 14
M  V30 22 1 18 19
M  V30 END BOND
M  V30 END CTAB
M  END
>  <Molecule Name>


>  <Name>
SPE_0088

>  <Name_tmp>


>  <Smiles>
C[NH]1CCN(CC1)C(=O)Nc1c(Cl)[nH]c2c1nccn2

>  <Residue Name>
S88

$$$$
SPE_0089
Actelion Java MolfileCreator 2.0

  0  0  0  0  0  0              0 V3000
M  V30 BEGIN CTAB
M  V30 COUNTS 20 22 0 0 0
M  V30 BEGIN ATOM
M  V30 1 Cl 0.0 0.0 0.0 0
M  V30 2 C -0.3172 1.4687 0.0 0
M  V30 3 N 0.6697 2.5849 0.0 0
M  V30 4 C -1.6919 2.0914 0.0 0
M  V30 5 C -0.0822 3.8891 0.0 0
M  V30 6 N -2.9961 1.3512 0.0 0
M  V30 7 C -1.5509 3.5836 0.0 0
M  V30 8 N 0.3642 5.3225 0.0 0
M  V30 9 C -4.3003 2.1031 0.0 0
M  V30 10 C -2.5614 4.6998 0.0 0
M  V30 11 C -0.6462 6.4387 0.0 0
M  V30 12 O -4.3121 3.6071 0.0 0
M  V30 13 N -5.6045 1.3629 0.0 0
M  V30 14 C -2.1149 6.1332 0.0 0
M  V30 15 C -6.9087 2.1149 0.0 0
M  V30 16 C -5.6163 -0.1174 0.0 0
M  V30 17 C -8.2129 1.3864 0.0 0
M  V30 18 C -6.9205 -0.8577 0.0 0
M  V30 19 N -8.2247 -0.0939 0.0 0 VAL=4
M  V30 20 C -9.5289 -0.8342 0.0 0
M  V30 END ATOM
M  V30 BEGIN BOND
M  V30 1 1 1 2
M  V30 2 1 2 3
M  V30 3 2 2 4
M  V30 4 1 3 5
M  V30 5 1 4 6
M  V30 6 1 4 7
M  V30 7 1 5 8
M  V30 8 1 6 9
M  V30 9 1 7 10
M  V30 10 2 8 11
M  V30 11 2 9 12
M  V30 12 1 9 13
M  V30 13 2 10 14
M  V30 14 1 13 15
M  V30 15 1 13 16
M  V30 16 1 15 17
M  V30 17 1 16 18
M  V30 18 1 17 19
M  V30 19 1 19 20
M  V30 20 2 5 7
M  V30 21 1 11 14
M  V30 22 1 18 19
M  V30 END BOND
M  V30 END CTAB
M  END
>  <Molecule Name>


>  <Name>
SPE_0089

>  <Name_tmp>


>  <Smiles>
C[NH]1CCN(CC1)C(=O)Nc1c(Cl)[nH]c2c1cccn2

>  <Residue Name>
S89

$$$$
SPE_0090
Actelion Java MolfileCreator 2.0

  0  0  0  0  0  0              0 V3000
M  V30 BEGIN CTAB
M  V30 COUNTS 20 22 0 0 0
M  V30 BEGIN ATOM
M  V30 1 Cl 0.0 0.0 0.0 0
M  V30 2 C -0.3172 1.4687 0.0 0
M  V30 3 N 0.6697 2.5849 0.0 0
M  V30 4 C -1.6919 2.0914 0.0 0
M  V30 5 C -0.0822 3.8891 0.0 0
M  V30 6 C -1.5509 3.5836 0.0 0
M  V30 7 C -2.9961 1.3512 0.0 0
M  V30 8 N 0.3642 5.3225 0.0 0
M  V30 9 C -2.5614 4.6998 0.0 0
M  V30 10 C -4.3003 2.1031 0.0 0
M  V30 11 C -0.6462 6.4387 0.0 0
M  V30 12 N -2.1149 6.1332 0.0 0
M  V30 13 O -4.3121 3.6071 0.0 0
M  V30 14 N -5.6045 1.3629 0.0 0
M  V30 15 C -6.9087 2.1149 0.0 0
M  V30 16 C -5.6163 -0.1174 0.0 0
M  V30 17 C -8.2129 1.3864 0.0 0
M  V30 18 C -6.9205 -0.8577 0.0 0
M  V30 19 N -8.2247 -0.0939 0.0 0 VAL=4
M  V30 20 C -9.5289 -0.8342 0.0 0
M  V30 END ATOM
M  V30 BEGIN BOND
M  V30 1 1 1 2
M  V30 2 1 2 3
M  V30 3 2 2 4
M  V30 4 1 3 5
M  V30 5 1 4 6
M  V30 6 1 4 7
M  V30 7 1 5 8
M  V30 8 1 6 9
M  V30 9 1 7 10
M  V30 10 2 8 11
M  V30 11 2 9 12
M  V30 12 2 10 13
M  V30 13 1 10 14
M  V30 14 1 14 15
M  V30 15 1 14 16
M  V30 16 1 15 17
M  V30 17 1 16 18
M  V30 18 1 17 19
M  V30 19 1 19 20
M  V30 20 2 5 6
M  V30 21 1 11 12
M  V30 22 1 18 19
M  V30 END BOND
M  V30 END CTAB
M  END
>  <Molecule Name>


>  <Name>
SPE_0090

>  <Name_tmp>


>  <Smiles>
C[NH]1CCN(CC1)C(=O)Cc1c(Cl)[nH]c2c1cncn2

>  <Residue Name>
S90

$$$$
SPE_0091
Actelion Java MolfileCreator 2.0

  0  0  0  0  0  0              0 V3000
M  V30 BEGIN CTAB
M  V30 COUNTS 20 22 0 0 0
M  V30 BEGIN ATOM
M  V30 1 Cl 0.0 0.0 0.0 0
M  V30 2 C -0.3172 1.4687 0.0 0
M  V30 3 N 0.6697 2.5849 0.0 0
M  V30 4 C -1.6919 2.0914 0.0 0
M  V30 5 C -0.0822 3.8891 0.0 0
M  V30 6 C -1.5509 3.5836 0.0 0
M  V30 7 C -2.9961 1.3512 0.0 0
M  V30 8 N 0.3642 5.3225 0.0 0
M  V30 9 N -2.5614 4.6998 0.0 0
M  V30 10 C -4.3003 2.1031 0.0 0
M  V30 11 C -0.6462 6.4387 0.0 0
M  V30 12 C -2.1149 6.1332 0.0 0
M  V30 13 O -4.3121 3.6071 0.0 0
M  V30 14 N -5.6045 1.3629 0.0 0
M  V30 15 C -6.9087 2.1149 0.0 0
M  V30 16 C -5.6163 -0.1174 0.0 0
M  V30 17 C -8.2129 1.3864 0.0 0
M  V30 18 C -6.9205 -0.8577 0.0 0
M  V30 19 N -8.2247 -0.0939 0.0 0 VAL=4
M  V30 20 C -9.5289 -0.8342 0.0 0
M  V30 END ATOM
M  V30 BEGIN BOND
M  V30 1 1 1 2
M  V30 2 1 2 3
M  V30 3 2 2 4
M  V30 4 1 3 5
M  V30 5 1 4 6
M  V30 6 1 4 7
M  V30 7 1 5 8
M  V30 8 1 6 9
M  V30 9 1 7 10
M  V30 10 2 8 11
M  V30 11 2 9 12
M  V30 12 2 10 13
M  V30 13 1 10 14
M  V30 14 1 14 15
M  V30 15 1 14 16
M  V30 16 1 15 17
M  V30 17 1 16 18
M  V30 18 1 17 19
M  V30 19 1 19 20
M  V30 20 2 5 6
M  V30 21 1 11 12
M  V30 22 1 18 19
M  V30 END BOND
M  V30 END CTAB
M  END
>  <Molecule Name>


>  <Name>
SPE_0091

>  <Name_tmp>


>  <Smiles>
C[NH]1CCN(CC1)C(=O)Cc1c(Cl)[nH]c2c1nccn2

>  <Residue Name>
S91

$$$$
SPE_0092
Actelion Java MolfileCreator 2.0

  0  0  0  0  0  0              0 V3000
M  V30 BEGIN CTAB
M  V30 COUNTS 18 19 0 0 0
M  V30 BEGIN ATOM
M  V30 1 Cl 0.0 0.0 0.0 0
M  V30 2 C 1.2866 0.7554 0.0 0
M  V30 3 N 2.5732 0.0118 0.0 0
M  V30 4 C 1.2748 2.2663 0.0 0
M  V30 5 C 3.8598 0.7672 0.0 0
M  V30 6 N -0.0354 3.0217 0.0 0
M  V30 7 C 2.5614 3.0217 0.0 0
M  V30 8 C 3.848 2.2781 0.0 0
M  V30 9 C -1.3456 2.2781 0.0 0
M  V30 10 N 5.1346 3.0335 0.0 0
M  V30 11 O -1.3574 0.7908 0.0 0
M  V30 12 N -2.6558 3.0335 0.0 0
M  V30 13 C -3.966 2.2899 0.0 0
M  V30 14 C -5.2763 3.0453 0.0 0
M  V30 15 C -3.9778 0.8026 0.0 0
M  V30 16 C -6.5865 2.3135 0.0 0
M  V30 17 C -5.2881 0.059 0.0 0
M  V30 18 C -6.5983 0.8262 0.0 0
M  V30 END ATOM
M  V30 BEGIN BOND
M  V30 1 1 1 2
M  V30 2 2 2 3
M  V30 3 1 2 4
M  V30 4 1 3 5
M  V30 5 1 4 6
M  V30 6 2 4 7
M  V30 7 2 5 8
M  V30 8 1 6 9
M  V30 9 1 8 10
M  V30 10 2 9 11
M  V30 11 1 9 12
M  V30 12 1 12 13
M  V30 13 2 13 14
M  V30 14 1 13 15
M  V30 15 1 14 16
M  V30 16 2 15 17
M  V30 17 2 16 18
M  V30 18 1 7 8
M  V30 19 1 17 18
M  V30 END BOND
M  V30 END CTAB
M  END
>  <Molecule Name>


>  <Name>
SPE_0092

>  <Name_tmp>


>  <Smiles>
O=C(Nc1cc(N)cnc1Cl)Nc1ccccc1

>  <Residue Name>
S92

$$$$
SPE_0093
Actelion Java MolfileCreator 2.0

  0  0  0  0  0  0              0 V3000
M  V30 BEGIN CTAB
M  V30 COUNTS 19 20 0 0 0
M  V30 BEGIN ATOM
M  V30 1 Cl 0.0 0.0 0.0 0
M  V30 2 C 1.2861 0.7551 0.0 0
M  V30 3 N 2.5722 0.0117 0.0 0
M  V30 4 C 1.2743 2.2655 0.0 0
M  V30 5 C 3.8584 0.7669 0.0 0
M  V30 6 N -0.0353 3.0206 0.0 0
M  V30 7 C 2.5604 3.0206 0.0 0
M  V30 8 C 3.8466 2.2773 0.0 0
M  V30 9 C -1.3451 2.2773 0.0 0
M  V30 10 N 5.1327 3.0324 0.0 0
M  V30 11 O -1.3569 0.7905 0.0 0
M  V30 12 N -2.6548 3.0324 0.0 0
M  V30 13 C 5.1209 4.5428 0.0 0
M  V30 14 C -3.9646 2.2891 0.0 0
M  V30 15 C -5.2743 3.0442 0.0 0
M  V30 16 C -3.9764 0.8023 0.0 0
M  V30 17 C -6.5841 2.3127 0.0 0
M  V30 18 C -5.2861 0.0589 0.0 0
M  V30 19 C -6.5959 0.8259 0.0 0
M  V30 END ATOM
M  V30 BEGIN BOND
M  V30 1 1 1 2
M  V30 2 2 2 3
M  V30 3 1 2 4
M  V30 4 1 3 5
M  V30 5 1 4 6
M  V30 6 2 4 7
M  V30 7 2 5 8
M  V30 8 1 6 9
M  V30 9 1 8 10
M  V30 10 2 9 11
M  V30 11 1 9 12
M  V30 12 1 10 13
M  V30 13 1 12 14
M  V30 14 2 14 15
M  V30 15 1 14 16
M  V30 16 1 15 17
M  V30 17 2 16 18
M  V30 18 2 17 19
M  V30 19 1 7 8
M  V30 20 1 18 19
M  V30 END BOND
M  V30 END CTAB
M  END
>  <Molecule Name>


>  <Name>
SPE_0093

>  <Name_tmp>


>  <Smiles>
CNc1cnc(c(c1)NC(=O)Nc1ccccc1)Cl

>  <Residue Name>
S93

$$$$
SPE_0094
Actelion Java MolfileCreator 2.0

  0  0  0  0  0  0              0 V3000
M  V30 BEGIN CTAB
M  V30 COUNTS 20 21 0 0 0
M  V30 BEGIN ATOM
M  V30 1 Cl 0.0 0.0 0.0 0
M  V30 2 C 1.2869 0.7556 0.0 0
M  V30 3 N 2.5739 0.0118 0.0 0
M  V30 4 C 1.2751 2.2669 0.0 0
M  V30 5 C 3.8609 0.7674 0.0 0
M  V30 6 N -0.0354 3.0226 0.0 0
M  V30 7 C 2.5621 3.0226 0.0 0
M  V30 8 C 3.8491 2.2787 0.0 0
M  V30 9 C -1.346 2.2787 0.0 0
M  V30 10 N 5.1361 3.0344 0.0 0
M  V30 11 O -1.3578 0.791 0.0 0
M  V30 12 N -2.6566 3.0344 0.0 0
M  V30 13 C 6.423 2.3023 0.0 0
M  V30 14 C 5.1243 4.5457 0.0 0
M  V30 15 C -3.9672 2.2905 0.0 0
M  V30 16 C -5.2777 3.0462 0.0 0
M  V30 17 C -3.979 0.8028 0.0 0
M  V30 18 C -6.5883 2.3142 0.0 0
M  V30 19 C -5.2896 0.059 0.0 0
M  V30 20 C -6.6002 0.8265 0.0 0
M  V30 END ATOM
M  V30 BEGIN BOND
M  V30 1 1 1 2
M  V30 2 2 2 3
M  V30 3 1 2 4
M  V30 4 1 3 5
M  V30 5 1 4 6
M  V30 6 2 4 7
M  V30 7 2 5 8
M  V30 8 1 6 9
M  V30 9 1 8 10
M  V30 10 2 9 11
M  V30 11 1 9 12
M  V30 12 1 10 13
M  V30 13 1 10 14
M  V30 14 1 12 15
M  V30 15 2 15 16
M  V30 16 1 15 17
M  V30 17 1 16 18
M  V30 18 2 17 19
M  V30 19 2 18 20
M  V30 20 1 7 8
M  V30 21 1 19 20
M  V30 END BOND
M  V30 END CTAB
M  END
>  <Molecule Name>


>  <Name>
SPE_0094

>  <Name_tmp>


>  <Smiles>
O=C(Nc1cc(cnc1Cl)N(C)C)Nc1ccccc1

>  <Residue Name>
S94

$$$$
SPE_0095
Actelion Java MolfileCreator 2.0

  0  0  0  0  0  0              0 V3000
M  V30 BEGIN CTAB
M  V30 COUNTS 21 23 0 0 0
M  V30 BEGIN ATOM
M  V30 1 Cl 0.0 0.0 0.0 0
M  V30 2 C 1.2861 0.7551 0.0 0
M  V30 3 N 2.5723 0.0117 0.0 0
M  V30 4 C 1.2743 2.2655 0.0 0
M  V30 5 C 3.8585 0.7669 0.0 0
M  V30 6 N -0.0353 3.0207 0.0 0
M  V30 7 C 2.5605 3.0207 0.0 0
M  V30 8 C 3.8467 2.2773 0.0 0
M  V30 9 C -1.3451 2.2773 0.0 0
M  V30 10 C 2.5487 4.5311 0.0 0
M  V30 11 N 5.1328 3.0325 0.0 0
M  V30 12 O -1.3569 0.7905 0.0 0
M  V30 13 N -2.6549 3.0325 0.0 0
M  V30 14 N 3.8349 5.298 0.0 0
M  V30 15 C 5.121 4.5429 0.0 0
M  V30 16 C -3.9647 2.2891 0.0 0
M  V30 17 C -5.2744 3.0443 0.0 0
M  V30 18 C -3.9765 0.8023 0.0 0
M  V30 19 C -6.5842 2.3127 0.0 0
M  V30 20 C -5.2862 0.0589 0.0 0
M  V30 21 C -6.596 0.8259 0.0 0
M  V30 END ATOM
M  V30 BEGIN BOND
M  V30 1 1 1 2
M  V30 2 1 2 3
M  V30 3 2 2 4
M  V30 4 2 3 5
M  V30 5 1 4 6
M  V30 6 1 4 7
M  V30 7 1 5 8
M  V30 8 1 6 9
M  V30 9 2 7 10
M  V30 10 2 8 11
M  V30 11 2 9 12
M  V30 12 1 9 13
M  V30 13 1 10 14
M  V30 14 1 11 15
M  V30 15 1 13 16
M  V30 16 2 16 17
M  V30 17 1 16 18
M  V30 18 1 17 19
M  V30 19 2 18 20
M  V30 20 2 19 21
M  V30 21 1 7 8
M  V30 22 2 14 15
M  V30 23 1 20 21
M  V30 END BOND
M  V30 END CTAB
M  END
>  <Molecule Name>


>  <Name>
SPE_0095

>  <Name_tmp>


>  <Smiles>
O=C(Nc1c(Cl)ncc2c1cncn2)Nc1ccccc1

>  <Residue Name>
S95

$$$$
SPE_0096
Actelion Java MolfileCreator 2.0

  0  0  0  0  0  0              0 V3000
M  V30 BEGIN CTAB
M  V30 COUNTS 21 23 0 0 0
M  V30 BEGIN ATOM
M  V30 1 Cl 0.0 0.0 0.0 0
M  V30 2 C 1.2861 0.7551 0.0 0
M  V30 3 N 2.5723 0.0117 0.0 0
M  V30 4 C 1.2743 2.2655 0.0 0
M  V30 5 C 3.8585 0.7669 0.0 0
M  V30 6 N -0.0353 3.0207 0.0 0
M  V30 7 C 2.5605 3.0207 0.0 0
M  V30 8 C 3.8467 2.2773 0.0 0
M  V30 9 C -1.3451 2.2773 0.0 0
M  V30 10 C 2.5487 4.5311 0.0 0
M  V30 11 N 5.1328 3.0325 0.0 0
M  V30 12 O -1.3569 0.7905 0.0 0
M  V30 13 N -2.6549 3.0325 0.0 0
M  V30 14 C 3.8349 5.298 0.0 0
M  V30 15 C 5.121 4.5429 0.0 0
M  V30 16 C -3.9647 2.2891 0.0 0
M  V30 17 C -5.2744 3.0443 0.0 0
M  V30 18 C -3.9765 0.8023 0.0 0
M  V30 19 C -6.5842 2.3127 0.0 0
M  V30 20 C -5.2862 0.0589 0.0 0
M  V30 21 C -6.596 0.8259 0.0 0
M  V30 END ATOM
M  V30 BEGIN BOND
M  V30 1 1 1 2
M  V30 2 1 2 3
M  V30 3 2 2 4
M  V30 4 2 3 5
M  V30 5 1 4 6
M  V30 6 1 4 7
M  V30 7 1 5 8
M  V30 8 1 6 9
M  V30 9 2 7 10
M  V30 10 2 8 11
M  V30 11 2 9 12
M  V30 12 1 9 13
M  V30 13 1 10 14
M  V30 14 1 11 15
M  V30 15 1 13 16
M  V30 16 2 16 17
M  V30 17 1 16 18
M  V30 18 1 17 19
M  V30 19 2 18 20
M  V30 20 2 19 21
M  V30 21 1 7 8
M  V30 22 2 14 15
M  V30 23 1 20 21
M  V30 END BOND
M  V30 END CTAB
M  END
>  <Molecule Name>


>  <Name>
SPE_0096

>  <Name_tmp>


>  <Smiles>
O=C(Nc1c(Cl)ncc2c1cccn2)Nc1ccccc1

>  <Residue Name>
S96

$$$$
SPE_0097
Actelion Java MolfileCreator 2.0

  0  0  0  0  0  0              0 V3000
M  V30 BEGIN CTAB
M  V30 COUNTS 20 22 0 0 0
M  V30 BEGIN ATOM
M  V30 1 Cl 0.0 0.0 0.0 0
M  V30 2 C 1.2868 0.7556 0.0 0
M  V30 3 N 2.5737 0.0118 0.0 0
M  V30 4 C 1.275 2.2668 0.0 0
M  V30 5 C 3.8606 0.7674 0.0 0
M  V30 6 N -0.0354 3.0224 0.0 0
M  V30 7 C 2.5619 3.0224 0.0 0
M  V30 8 C 3.8488 2.2786 0.0 0
M  V30 9 C -1.3459 2.2786 0.0 0
M  V30 10 C 2.8571 4.4982 0.0 0
M  V30 11 N 4.9468 3.2939 0.0 0
M  V30 12 O -1.3577 0.791 0.0 0
M  V30 13 N -2.6564 3.0342 0.0 0
M  V30 14 C 4.3329 4.6634 0.0 0
M  V30 15 C -3.9669 2.2904 0.0 0
M  V30 16 C -5.2774 3.046 0.0 0
M  V30 17 C -3.9787 0.8028 0.0 0
M  V30 18 C -6.5879 2.314 0.0 0
M  V30 19 C -5.2892 0.059 0.0 0
M  V30 20 C -6.5997 0.8264 0.0 0
M  V30 END ATOM
M  V30 BEGIN BOND
M  V30 1 1 1 2
M  V30 2 2 2 3
M  V30 3 1 2 4
M  V30 4 1 3 5
M  V30 5 1 4 6
M  V30 6 2 4 7
M  V30 7 2 5 8
M  V30 8 1 6 9
M  V30 9 1 7 10
M  V30 10 1 8 11
M  V30 11 2 9 12
M  V30 12 1 9 13
M  V30 13 2 10 14
M  V30 14 1 13 15
M  V30 15 2 15 16
M  V30 16 1 15 17
M  V30 17 1 16 18
M  V30 18 2 17 19
M  V30 19 2 18 20
M  V30 20 1 7 8
M  V30 21 1 11 14
M  V30 22 1 19 20
M  V30 END BOND
M  V30 END CTAB
M  END
>  <Molecule Name>


>  <Name>
SPE_0097

>  <Name_tmp>


>  <Smiles>
O=C(Nc1c(Cl)ncc2c1cc[nH]2)Nc1ccccc1

>  <Residue Name>
S97

$$$$
SPE_0098
Actelion Java MolfileCreator 2.0

  0  0  0  0  0  0              0 V3000
M  V30 BEGIN CTAB
M  V30 COUNTS 20 22 0 0 0
M  V30 BEGIN ATOM
M  V30 1 Cl 0.0 0.0 0.0 0
M  V30 2 C 1.2868 0.7556 0.0 0
M  V30 3 N 2.5737 0.0118 0.0 0
M  V30 4 C 1.275 2.2668 0.0 0
M  V30 5 C 3.8606 0.7674 0.0 0
M  V30 6 N -0.0354 3.0224 0.0 0
M  V30 7 C 2.5619 3.0224 0.0 0
M  V30 8 N 3.8488 2.2786 0.0 0
M  V30 9 C -1.3459 2.2786 0.0 0
M  V30 10 C 2.8571 4.4982 0.0 0
M  V30 11 N 4.9468 3.2939 0.0 0
M  V30 12 O -1.3577 0.791 0.0 0
M  V30 13 N -2.6564 3.0342 0.0 0
M  V30 14 C 4.3329 4.6634 0.0 0
M  V30 15 C -3.9669 2.2904 0.0 0
M  V30 16 C -5.2774 3.046 0.0 0
M  V30 17 C -3.9787 0.8028 0.0 0
M  V30 18 C -6.5879 2.314 0.0 0
M  V30 19 C -5.2892 0.059 0.0 0
M  V30 20 C -6.5997 0.8264 0.0 0
M  V30 END ATOM
M  V30 BEGIN BOND
M  V30 1 1 1 2
M  V30 2 1 2 3
M  V30 3 2 2 4
M  V30 4 2 3 5
M  V30 5 1 4 6
M  V30 6 1 4 7
M  V30 7 1 5 8
M  V30 8 1 6 9
M  V30 9 2 7 10
M  V30 10 1 8 11
M  V30 11 2 9 12
M  V30 12 1 9 13
M  V30 13 1 10 14
M  V30 14 1 13 15
M  V30 15 2 15 16
M  V30 16 1 15 17
M  V30 17 1 16 18
M  V30 18 2 17 19
M  V30 19 2 18 20
M  V30 20 1 7 8
M  V30 21 2 11 14
M  V30 22 1 19 20
M  V30 END BOND
M  V30 END CTAB
M  END
>  <Molecule Name>


>  <Name>
SPE_0098

>  <Name_tmp>


>  <Smiles>
O=C(Nc1c(Cl)ncn2c1ccn2)Nc1ccccc1

>  <Residue Name>
S98

$$$$
SPE_0099
Actelion Java MolfileCreator 2.0

  0  0  0  0  0  0              0 V3000
M  V30 BEGIN CTAB
M  V30 COUNTS 20 22 0 0 0
M  V30 BEGIN ATOM
M  V30 1 Cl 0.0 0.0 0.0 0
M  V30 2 C 1.2868 0.7556 0.0 0
M  V30 3 N 2.5737 0.0118 0.0 0
M  V30 4 C 1.275 2.2668 0.0 0
M  V30 5 C 3.8606 0.7674 0.0 0
M  V30 6 N 2.5619 3.0224 0.0 0
M  V30 7 N -0.0354 3.0224 0.0 0
M  V30 8 C 3.8488 2.2786 0.0 0
M  V30 9 C 2.8571 4.4982 0.0 0
M  V30 10 C -1.3459 2.2786 0.0 0
M  V30 11 N 4.9468 3.2939 0.0 0
M  V30 12 C 4.3329 4.6634 0.0 0
M  V30 13 O -1.3577 0.791 0.0 0
M  V30 14 N -2.6564 3.0342 0.0 0
M  V30 15 C -3.9669 2.2904 0.0 0
M  V30 16 C -5.2774 3.046 0.0 0
M  V30 17 C -3.9787 0.8028 0.0 0
M  V30 18 C -6.5879 2.314 0.0 0
M  V30 19 C -5.2892 0.059 0.0 0
M  V30 20 C -6.5997 0.8264 0.0 0
M  V30 END ATOM
M  V30 BEGIN BOND
M  V30 1 1 1 2
M  V30 2 1 2 3
M  V30 3 2 2 4
M  V30 4 2 3 5
M  V30 5 1 4 6
M  V30 6 1 4 7
M  V30 7 1 5 8
M  V30 8 1 6 9
M  V30 9 1 7 10
M  V30 10 2 8 11
M  V30 11 2 9 12
M  V30 12 2 10 13
M  V30 13 1 10 14
M  V30 14 1 14 15
M  V30 15 2 15 16
M  V30 16 1 15 17
M  V30 17 1 16 18
M  V30 18 2 17 19
M  V30 19 2 18 20
M  V30 20 1 6 8
M  V30 21 1 11 12
M  V30 22 1 19 20
M  V30 END BOND
M  V30 END CTAB
M  END
>  <Molecule Name>


>  <Name>
SPE_0099

>  <Name_tmp>


>  <Smiles>
O=C(Nc1c(Cl)ncc2n1ccn2)Nc1ccccc1

>  <Residue Name>
S99

$$$$
SPE_0100
Actelion Java MolfileCreator 2.0

  0  0  0  0  0  0              0 V3000
M  V30 BEGIN CTAB
M  V30 COUNTS 20 22 0 0 0
M  V30 BEGIN ATOM
M  V30 1 Cl 0.0 0.0 0.0 0
M  V30 2 C 1.2868 0.7556 0.0 0
M  V30 3 N 2.5737 0.0118 0.0 0
M  V30 4 C 1.275 2.2668 0.0 0
M  V30 5 C 3.8606 0.7674 0.0 0
M  V30 6 N -0.0354 3.0224 0.0 0
M  V30 7 C 2.5619 3.0224 0.0 0
M  V30 8 C 3.8488 2.2786 0.0 0
M  V30 9 C -1.3459 2.2786 0.0 0
M  V30 10 N 2.8571 4.4982 0.0 0
M  V30 11 N 4.9468 3.2939 0.0 0
M  V30 12 O -1.3577 0.791 0.0 0
M  V30 13 N -2.6564 3.0342 0.0 0
M  V30 14 C 4.3329 4.6634 0.0 0
M  V30 15 C -3.9669 2.2904 0.0 0
M  V30 16 C -5.2774 3.046 0.0 0
M  V30 17 C -3.9787 0.8028 0.0 0
M  V30 18 C -6.5879 2.314 0.0 0
M  V30 19 C -5.2892 0.059 0.0 0
M  V30 20 C -6.5997 0.8264 0.0 0
M  V30 END ATOM
M  V30 BEGIN BOND
M  V30 1 1 1 2
M  V30 2 2 2 3
M  V30 3 1 2 4
M  V30 4 1 3 5
M  V30 5 1 4 6
M  V30 6 2 4 7
M  V30 7 2 5 8
M  V30 8 1 6 9
M  V30 9 1 7 10
M  V30 10 1 8 11
M  V30 11 2 9 12
M  V30 12 1 9 13
M  V30 13 2 10 14
M  V30 14 1 13 15
M  V30 15 2 15 16
M  V30 16 1 15 17
M  V30 17 1 16 18
M  V30 18 2 17 19
M  V30 19 2 18 20
M  V30 20 1 7 8
M  V30 21 1 11 14
M  V30 22 1 19 20
M  V30 END BOND
M  V30 END CTAB
M  END
>  <Molecule Name>


>  <Name>
SPE_0100

>  <Name_tmp>


>  <Smiles>
O=C(Nc1c(Cl)ncc2c1nc[nH]2)Nc1ccccc1

>  <Residue Name>
T00

$$$$
SPE_0101
Actelion Java MolfileCreator 2.0

  0  0  0  0  0  0              0 V3000
M  V30 BEGIN CTAB
M  V30 COUNTS 20 22 0 0 0
M  V30 BEGIN ATOM
M  V30 1 Cl 0.0 0.0 0.0 0
M  V30 2 C 1.2868 0.7556 0.0 0
M  V30 3 N 2.5737 0.0118 0.0 0
M  V30 4 C 1.275 2.2668 0.0 0
M  V30 5 C 3.8606 0.7674 0.0 0
M  V30 6 N -0.0354 3.0224 0.0 0
M  V30 7 C 2.5619 3.0224 0.0 0
M  V30 8 C 3.8488 2.2786 0.0 0
M  V30 9 C -1.3459 2.2786 0.0 0
M  V30 10 C 2.8571 4.4982 0.0 0
M  V30 11 N 4.9468 3.2939 0.0 0
M  V30 12 O -1.3577 0.791 0.0 0
M  V30 13 N -2.6564 3.0342 0.0 0
M  V30 14 N 4.3329 4.6634 0.0 0
M  V30 15 C -3.9669 2.2904 0.0 0
M  V30 16 C -5.2774 3.046 0.0 0
M  V30 17 C -3.9787 0.8028 0.0 0
M  V30 18 C -6.5879 2.314 0.0 0
M  V30 19 C -5.2892 0.059 0.0 0
M  V30 20 C -6.5997 0.8264 0.0 0
M  V30 END ATOM
M  V30 BEGIN BOND
M  V30 1 1 1 2
M  V30 2 2 2 3
M  V30 3 1 2 4
M  V30 4 1 3 5
M  V30 5 1 4 6
M  V30 6 2 4 7
M  V30 7 2 5 8
M  V30 8 1 6 9
M  V30 9 1 7 10
M  V30 10 1 8 11
M  V30 11 2 9 12
M  V30 12 1 9 13
M  V30 13 2 10 14
M  V30 14 1 13 15
M  V30 15 2 15 16
M  V30 16 1 15 17
M  V30 17 1 16 18
M  V30 18 2 17 19
M  V30 19 2 18 20
M  V30 20 1 7 8
M  V30 21 1 11 14
M  V30 22 1 19 20
M  V30 END BOND
M  V30 END CTAB
M  END
>  <Molecule Name>


>  <Name>
SPE_0101

>  <Name_tmp>


>  <Smiles>
O=C(Nc1c(Cl)ncc2c1cn[nH]2)Nc1ccccc1

>  <Residue Name>
T01

$$$$
SPE_0102
Actelion Java MolfileCreator 2.0

  0  0  0  0  0  0              0 V3000
M  V30 BEGIN CTAB
M  V30 COUNTS 21 23 0 0 0
M  V30 BEGIN ATOM
M  V30 1 Cl 0.0 0.0 0.0 0
M  V30 2 C 1.2861 0.7551 0.0 0
M  V30 3 N 2.5723 0.0117 0.0 0
M  V30 4 C 1.2743 2.2655 0.0 0
M  V30 5 C 3.8585 0.7669 0.0 0
M  V30 6 N -0.0353 3.0207 0.0 0
M  V30 7 C 2.5605 3.0207 0.0 0
M  V30 8 C 3.8467 2.2773 0.0 0
M  V30 9 C -1.3451 2.2773 0.0 0
M  V30 10 N 2.5487 4.5311 0.0 0
M  V30 11 N 5.1328 3.0325 0.0 0
M  V30 12 O -1.3569 0.7905 0.0 0
M  V30 13 N -2.6549 3.0325 0.0 0
M  V30 14 C 3.8349 5.298 0.0 0
M  V30 15 C 5.121 4.5429 0.0 0
M  V30 16 C -3.9647 2.2891 0.0 0
M  V30 17 C -5.2744 3.0443 0.0 0
M  V30 18 C -3.9765 0.8023 0.0 0
M  V30 19 C -6.5842 2.3127 0.0 0
M  V30 20 C -5.2862 0.0589 0.0 0
M  V30 21 C -6.596 0.8259 0.0 0
M  V30 END ATOM
M  V30 BEGIN BOND
M  V30 1 1 1 2
M  V30 2 1 2 3
M  V30 3 2 2 4
M  V30 4 2 3 5
M  V30 5 1 4 6
M  V30 6 1 4 7
M  V30 7 1 5 8
M  V30 8 1 6 9
M  V30 9 2 7 10
M  V30 10 2 8 11
M  V30 11 2 9 12
M  V30 12 1 9 13
M  V30 13 1 10 14
M  V30 14 1 11 15
M  V30 15 1 13 16
M  V30 16 2 16 17
M  V30 17 1 16 18
M  V30 18 1 17 19
M  V30 19 2 18 20
M  V30 20 2 19 21
M  V30 21 1 7 8
M  V30 22 2 14 15
M  V30 23 1 20 21
M  V30 END BOND
M  V30 END CTAB
M  END
>  <Molecule Name>


>  <Name>
SPE_0102

>  <Name_tmp>


>  <Smiles>
O=C(Nc1c(Cl)ncc2c1nccn2)Nc1ccccc1

>  <Residue Name>
T02

$$$$
SPE_0103
Actelion Java MolfileCreator 2.0

  0  0  0  0  0  0              0 V3000
M  V30 BEGIN CTAB
M  V30 COUNTS 18 19 0 0 0
M  V30 BEGIN ATOM
M  V30 1 Cl 0.0 0.0 0.0 0
M  V30 2 C 1.2866 0.7554 0.0 0
M  V30 3 N 2.5732 0.0118 0.0 0
M  V30 4 C 1.2748 2.2663 0.0 0
M  V30 5 C 3.8598 0.7672 0.0 0
M  V30 6 N -0.0354 3.0217 0.0 0
M  V30 7 C 2.5614 3.0217 0.0 0
M  V30 8 C 3.848 2.2781 0.0 0
M  V30 9 C -1.3456 2.2781 0.0 0
M  V30 10 N 5.1346 3.0335 0.0 0
M  V30 11 O -1.3574 0.7908 0.0 0
M  V30 12 C -2.6558 3.0335 0.0 0
M  V30 13 C -3.966 2.2899 0.0 0
M  V30 14 C -5.2763 3.0453 0.0 0
M  V30 15 C -3.9778 0.8026 0.0 0
M  V30 16 C -6.5865 2.3135 0.0 0
M  V30 17 C -5.2881 0.059 0.0 0
M  V30 18 C -6.5983 0.8262 0.0 0
M  V30 END ATOM
M  V30 BEGIN BOND
M  V30 1 1 1 2
M  V30 2 2 2 3
M  V30 3 1 2 4
M  V30 4 1 3 5
M  V30 5 1 4 6
M  V30 6 2 4 7
M  V30 7 2 5 8
M  V30 8 1 6 9
M  V30 9 1 8 10
M  V30 10 2 9 11
M  V30 11 1 9 12
M  V30 12 1 12 13
M  V30 13 1 13 14
M  V30 14 1 13 15
M  V30 15 1 14 16
M  V30 16 1 15 17
M  V30 17 1 16 18
M  V30 18 1 7 8
M  V30 19 1 17 18
M  V30 END BOND
M  V30 END CTAB
M  END
>  <Molecule Name>


>  <Name>
SPE_0103

>  <Name_tmp>


>  <Smiles>
O=C(Nc1cc(N)cnc1Cl)CC1CCCCC1

>  <Residue Name>
T03

$$$$
SPE_0104
Actelion Java MolfileCreator 2.0

  0  0  0  0  0  0              0 V3000
M  V30 BEGIN CTAB
M  V30 COUNTS 19 20 0 0 0
M  V30 BEGIN ATOM
M  V30 1 Cl 0.0 0.0 0.0 0
M  V30 2 C 1.2861 0.7551 0.0 0
M  V30 3 N 2.5722 0.0117 0.0 0
M  V30 4 C 1.2743 2.2655 0.0 0
M  V30 5 C 3.8584 0.7669 0.0 0
M  V30 6 N -0.0353 3.0206 0.0 0
M  V30 7 C 2.5604 3.0206 0.0 0
M  V30 8 C 3.8466 2.2773 0.0 0
M  V30 9 C -1.3451 2.2773 0.0 0
M  V30 10 N 5.1327 3.0324 0.0 0
M  V30 11 O -1.3569 0.7905 0.0 0
M  V30 12 C -2.6548 3.0324 0.0 0
M  V30 13 C 5.1209 4.5428 0.0 0
M  V30 14 C -3.9646 2.2891 0.0 0
M  V30 15 C -5.2743 3.0442 0.0 0
M  V30 16 C -3.9764 0.8023 0.0 0
M  V30 17 C -6.5841 2.3127 0.0 0
M  V30 18 C -5.2861 0.0589 0.0 0
M  V30 19 C -6.5959 0.8259 0.0 0
M  V30 END ATOM
M  V30 BEGIN BOND
M  V30 1 1 1 2
M  V30 2 2 2 3
M  V30 3 1 2 4
M  V30 4 1 3 5
M  V30 5 1 4 6
M  V30 6 2 4 7
M  V30 7 2 5 8
M  V30 8 1 6 9
M  V30 9 1 8 10
M  V30 10 2 9 11
M  V30 11 1 9 12
M  V30 12 1 10 13
M  V30 13 1 12 14
M  V30 14 1 14 15
M  V30 15 1 14 16
M  V30 16 1 15 17
M  V30 17 1 16 18
M  V30 18 1 17 19
M  V30 19 1 7 8
M  V30 20 1 18 19
M  V30 END BOND
M  V30 END CTAB
M  END
>  <Molecule Name>


>  <Name>
SPE_0104

>  <Name_tmp>


>  <Smiles>
CNc1cnc(c(c1)NC(=O)CC1CCCCC1)Cl

>  <Residue Name>
T04

$$$$
SPE_0105
Actelion Java MolfileCreator 2.0

  0  0  0  0  0  0              0 V3000
M  V30 BEGIN CTAB
M  V30 COUNTS 20 21 0 0 0
M  V30 BEGIN ATOM
M  V30 1 Cl 0.0 0.0 0.0 0
M  V30 2 C 1.2869 0.7556 0.0 0
M  V30 3 N 2.5739 0.0118 0.0 0
M  V30 4 C 1.2751 2.2669 0.0 0
M  V30 5 C 3.8609 0.7674 0.0 0
M  V30 6 N -0.0354 3.0226 0.0 0
M  V30 7 C 2.5621 3.0226 0.0 0
M  V30 8 C 3.8491 2.2787 0.0 0
M  V30 9 C -1.346 2.2787 0.0 0
M  V30 10 N 5.1361 3.0344 0.0 0
M  V30 11 O -1.3578 0.791 0.0 0
M  V30 12 C -2.6566 3.0344 0.0 0
M  V30 13 C 6.423 2.3023 0.0 0
M  V30 14 C 5.1243 4.5457 0.0 0
M  V30 15 C -3.9672 2.2905 0.0 0
M  V30 16 C -5.2777 3.0462 0.0 0
M  V30 17 C -3.979 0.8028 0.0 0
M  V30 18 C -6.5883 2.3142 0.0 0
M  V30 19 C -5.2896 0.059 0.0 0
M  V30 20 C -6.6002 0.8265 0.0 0
M  V30 END ATOM
M  V30 BEGIN BOND
M  V30 1 1 1 2
M  V30 2 2 2 3
M  V30 3 1 2 4
M  V30 4 1 3 5
M  V30 5 1 4 6
M  V30 6 2 4 7
M  V30 7 2 5 8
M  V30 8 1 6 9
M  V30 9 1 8 10
M  V30 10 2 9 11
M  V30 11 1 9 12
M  V30 12 1 10 13
M  V30 13 1 10 14
M  V30 14 1 12 15
M  V30 15 1 15 16
M  V30 16 1 15 17
M  V30 17 1 16 18
M  V30 18 1 17 19
M  V30 19 1 18 20
M  V30 20 1 7 8
M  V30 21 1 19 20
M  V30 END BOND
M  V30 END CTAB
M  END
>  <Molecule Name>


>  <Name>
SPE_0105

>  <Name_tmp>


>  <Smiles>
CN(c1cnc(c(c1)NC(=O)CC1CCCCC1)Cl)C

>  <Residue Name>
T05

$$$$
SPE_0106
Actelion Java MolfileCreator 2.0

  0  0  0  0  0  0              0 V3000
M  V30 BEGIN CTAB
M  V30 COUNTS 21 23 0 0 0
M  V30 BEGIN ATOM
M  V30 1 Cl 0.0 0.0 0.0 0
M  V30 2 C 1.2861 0.7551 0.0 0
M  V30 3 N 2.5723 0.0117 0.0 0
M  V30 4 C 1.2743 2.2655 0.0 0
M  V30 5 C 3.8585 0.7669 0.0 0
M  V30 6 N -0.0353 3.0207 0.0 0
M  V30 7 C 2.5605 3.0207 0.0 0
M  V30 8 C 3.8467 2.2773 0.0 0
M  V30 9 C -1.3451 2.2773 0.0 0
M  V30 10 C 2.5487 4.5311 0.0 0
M  V30 11 N 5.1328 3.0325 0.0 0
M  V30 12 O -1.3569 0.7905 0.0 0
M  V30 13 C -2.6549 3.0325 0.0 0
M  V30 14 N 3.8349 5.298 0.0 0
M  V30 15 C 5.121 4.5429 0.0 0
M  V30 16 C -3.9647 2.2891 0.0 0
M  V30 17 C -5.2744 3.0443 0.0 0
M  V30 18 C -3.9765 0.8023 0.0 0
M  V30 19 C -6.5842 2.3127 0.0 0
M  V30 20 C -5.2862 0.0589 0.0 0
M  V30 21 C -6.596 0.8259 0.0 0
M  V30 END ATOM
M  V30 BEGIN BOND
M  V30 1 1 1 2
M  V30 2 1 2 3
M  V30 3 2 2 4
M  V30 4 2 3 5
M  V30 5 1 4 6
M  V30 6 1 4 7
M  V30 7 1 5 8
M  V30 8 1 6 9
M  V30 9 2 7 10
M  V30 10 2 8 11
M  V30 11 2 9 12
M  V30 12 1 9 13
M  V30 13 1 10 14
M  V30 14 1 11 15
M  V30 15 1 13 16
M  V30 16 1 16 17
M  V30 17 1 16 18
M  V30 18 1 17 19
M  V30 19 1 18 20
M  V30 20 1 19 21
M  V30 21 1 7 8
M  V30 22 2 14 15
M  V30 23 1 20 21
M  V30 END BOND
M  V30 END CTAB
M  END
>  <Molecule Name>


>  <Name>
SPE_0106

>  <Name_tmp>


>  <Smiles>
O=C(Nc1c(Cl)ncc2c1cncn2)CC1CCCCC1

>  <Residue Name>
T06

$$$$
SPE_0107
Actelion Java MolfileCreator 2.0

  0  0  0  0  0  0              0 V3000
M  V30 BEGIN CTAB
M  V30 COUNTS 21 23 0 0 0
M  V30 BEGIN ATOM
M  V30 1 Cl 0.0 0.0 0.0 0
M  V30 2 C 1.2861 0.7551 0.0 0
M  V30 3 N 2.5723 0.0117 0.0 0
M  V30 4 C 1.2743 2.2655 0.0 0
M  V30 5 C 3.8585 0.7669 0.0 0
M  V30 6 N -0.0353 3.0207 0.0 0
M  V30 7 C 2.5605 3.0207 0.0 0
M  V30 8 C 3.8467 2.2773 0.0 0
M  V30 9 C -1.3451 2.2773 0.0 0
M  V30 10 C 2.5487 4.5311 0.0 0
M  V30 11 N 5.1328 3.0325 0.0 0
M  V30 12 O -1.3569 0.7905 0.0 0
M  V30 13 C -2.6549 3.0325 0.0 0
M  V30 14 C 3.8349 5.298 0.0 0
M  V30 15 C 5.121 4.5429 0.0 0
M  V30 16 C -3.9647 2.2891 0.0 0
M  V30 17 C -5.2744 3.0443 0.0 0
M  V30 18 C -3.9765 0.8023 0.0 0
M  V30 19 C -6.5842 2.3127 0.0 0
M  V30 20 C -5.2862 0.0589 0.0 0
M  V30 21 C -6.596 0.8259 0.0 0
M  V30 END ATOM
M  V30 BEGIN BOND
M  V30 1 1 1 2
M  V30 2 1 2 3
M  V30 3 2 2 4
M  V30 4 2 3 5
M  V30 5 1 4 6
M  V30 6 1 4 7
M  V30 7 1 5 8
M  V30 8 1 6 9
M  V30 9 2 7 10
M  V30 10 2 8 11
M  V30 11 2 9 12
M  V30 12 1 9 13
M  V30 13 1 10 14
M  V30 14 1 11 15
M  V30 15 1 13 16
M  V30 16 1 16 17
M  V30 17 1 16 18
M  V30 18 1 17 19
M  V30 19 1 18 20
M  V30 20 1 19 21
M  V30 21 1 7 8
M  V30 22 2 14 15
M  V30 23 1 20 21
M  V30 END BOND
M  V30 END CTAB
M  END
>  <Molecule Name>


>  <Name>
SPE_0107

>  <Name_tmp>


>  <Smiles>
O=C(Nc1c(Cl)ncc2c1cccn2)CC1CCCCC1

>  <Residue Name>
T07

$$$$
SPE_0108
Actelion Java MolfileCreator 2.0

  0  0  0  0  0  0              0 V3000
M  V30 BEGIN CTAB
M  V30 COUNTS 20 22 0 0 0
M  V30 BEGIN ATOM
M  V30 1 Cl 0.0 0.0 0.0 0
M  V30 2 C 1.2868 0.7556 0.0 0
M  V30 3 N 2.5737 0.0118 0.0 0
M  V30 4 C 1.275 2.2668 0.0 0
M  V30 5 C 3.8606 0.7674 0.0 0
M  V30 6 N -0.0354 3.0224 0.0 0
M  V30 7 C 2.5619 3.0224 0.0 0
M  V30 8 C 3.8488 2.2786 0.0 0
M  V30 9 C -1.3459 2.2786 0.0 0
M  V30 10 C 2.8571 4.4982 0.0 0
M  V30 11 N 4.9468 3.2939 0.0 0
M  V30 12 O -1.3577 0.791 0.0 0
M  V30 13 C -2.6564 3.0342 0.0 0
M  V30 14 C 4.3329 4.6634 0.0 0
M  V30 15 C -3.9669 2.2904 0.0 0
M  V30 16 C -5.2774 3.046 0.0 0
M  V30 17 C -3.9787 0.8028 0.0 0
M  V30 18 C -6.5879 2.314 0.0 0
M  V30 19 C -5.2892 0.059 0.0 0
M  V30 20 C -6.5997 0.8264 0.0 0
M  V30 END ATOM
M  V30 BEGIN BOND
M  V30 1 1 1 2
M  V30 2 2 2 3
M  V30 3 1 2 4
M  V30 4 1 3 5
M  V30 5 1 4 6
M  V30 6 2 4 7
M  V30 7 2 5 8
M  V30 8 1 6 9
M  V30 9 1 7 10
M  V30 10 1 8 11
M  V30 11 2 9 12
M  V30 12 1 9 13
M  V30 13 2 10 14
M  V30 14 1 13 15
M  V30 15 1 15 16
M  V30 16 1 15 17
M  V30 17 1 16 18
M  V30 18 1 17 19
M  V30 19 1 18 20
M  V30 20 1 7 8
M  V30 21 1 11 14
M  V30 22 1 19 20
M  V30 END BOND
M  V30 END CTAB
M  END
>  <Molecule Name>


>  <Name>
SPE_0108

>  <Name_tmp>


>  <Smiles>
O=C(Nc1c(Cl)ncc2c1cc[nH]2)CC1CCCCC1

>  <Residue Name>
T08

$$$$
SPE_0109
Actelion Java MolfileCreator 2.0

  0  0  0  0  0  0              0 V3000
M  V30 BEGIN CTAB
M  V30 COUNTS 20 22 0 0 0
M  V30 BEGIN ATOM
M  V30 1 Cl 0.0 0.0 0.0 0
M  V30 2 C 1.2868 0.7556 0.0 0
M  V30 3 N 2.5737 0.0118 0.0 0
M  V30 4 C 1.275 2.2668 0.0 0
M  V30 5 C 3.8606 0.7674 0.0 0
M  V30 6 N -0.0354 3.0224 0.0 0
M  V30 7 C 2.5619 3.0224 0.0 0
M  V30 8 N 3.8488 2.2786 0.0 0
M  V30 9 C -1.3459 2.2786 0.0 0
M  V30 10 C 2.8571 4.4982 0.0 0
M  V30 11 N 4.9468 3.2939 0.0 0
M  V30 12 O -1.3577 0.791 0.0 0
M  V30 13 C -2.6564 3.0342 0.0 0
M  V30 14 C 4.3329 4.6634 0.0 0
M  V30 15 C -3.9669 2.2904 0.0 0
M  V30 16 C -5.2774 3.046 0.0 0
M  V30 17 C -3.9787 0.8028 0.0 0
M  V30 18 C -6.5879 2.314 0.0 0
M  V30 19 C -5.2892 0.059 0.0 0
M  V30 20 C -6.5997 0.8264 0.0 0
M  V30 END ATOM
M  V30 BEGIN BOND
M  V30 1 1 1 2
M  V30 2 1 2 3
M  V30 3 2 2 4
M  V30 4 2 3 5
M  V30 5 1 4 6
M  V30 6 1 4 7
M  V30 7 1 5 8
M  V30 8 1 6 9
M  V30 9 2 7 10
M  V30 10 1 8 11
M  V30 11 2 9 12
M  V30 12 1 9 13
M  V30 13 1 10 14
M  V30 14 1 13 15
M  V30 15 1 15 16
M  V30 16 1 15 17
M  V30 17 1 16 18
M  V30 18 1 17 19
M  V30 19 1 18 20
M  V30 20 1 7 8
M  V30 21 2 11 14
M  V30 22 1 19 20
M  V30 END BOND
M  V30 END CTAB
M  END
>  <Molecule Name>


>  <Name>
SPE_0109

>  <Name_tmp>


>  <Smiles>
O=C(Nc1c(Cl)ncn2c1ccn2)CC1CCCCC1

>  <Residue Name>
T09

$$$$
SPE_0110
Actelion Java MolfileCreator 2.0

  0  0  0  0  0  0              0 V3000
M  V30 BEGIN CTAB
M  V30 COUNTS 20 22 0 0 0
M  V30 BEGIN ATOM
M  V30 1 Cl 0.0 0.0 0.0 0
M  V30 2 C 1.2868 0.7556 0.0 0
M  V30 3 N 2.5737 0.0118 0.0 0
M  V30 4 C 1.275 2.2668 0.0 0
M  V30 5 C 3.8606 0.7674 0.0 0
M  V30 6 N 2.5619 3.0224 0.0 0
M  V30 7 N -0.0354 3.0224 0.0 0
M  V30 8 C 3.8488 2.2786 0.0 0
M  V30 9 C 2.8571 4.4982 0.0 0
M  V30 10 C -1.3459 2.2786 0.0 0
M  V30 11 N 4.9468 3.2939 0.0 0
M  V30 12 C 4.3329 4.6634 0.0 0
M  V30 13 O -1.3577 0.791 0.0 0
M  V30 14 C -2.6564 3.0342 0.0 0
M  V30 15 C -3.9669 2.2904 0.0 0
M  V30 16 C -5.2774 3.046 0.0 0
M  V30 17 C -3.9787 0.8028 0.0 0
M  V30 18 C -6.5879 2.314 0.0 0
M  V30 19 C -5.2892 0.059 0.0 0
M  V30 20 C -6.5997 0.8264 0.0 0
M  V30 END ATOM
M  V30 BEGIN BOND
M  V30 1 1 1 2
M  V30 2 1 2 3
M  V30 3 2 2 4
M  V30 4 2 3 5
M  V30 5 1 4 6
M  V30 6 1 4 7
M  V30 7 1 5 8
M  V30 8 1 6 9
M  V30 9 1 7 10
M  V30 10 2 8 11
M  V30 11 2 9 12
M  V30 12 2 10 13
M  V30 13 1 10 14
M  V30 14 1 14 15
M  V30 15 1 15 16
M  V30 16 1 15 17
M  V30 17 1 16 18
M  V30 18 1 17 19
M  V30 19 1 18 20
M  V30 20 1 6 8
M  V30 21 1 11 12
M  V30 22 1 19 20
M  V30 END BOND
M  V30 END CTAB
M  END
>  <Molecule Name>


>  <Name>
SPE_0110

>  <Name_tmp>


>  <Smiles>
O=C(Nc1c(Cl)ncc2n1ccn2)CC1CCCCC1

>  <Residue Name>
T10

$$$$
SPE_0111
Actelion Java MolfileCreator 2.0

  0  0  0  0  0  0              0 V3000
M  V30 BEGIN CTAB
M  V30 COUNTS 20 22 0 0 0
M  V30 BEGIN ATOM
M  V30 1 Cl 0.0 0.0 0.0 0
M  V30 2 C 1.2868 0.7556 0.0 0
M  V30 3 N 2.5737 0.0118 0.0 0
M  V30 4 C 1.275 2.2668 0.0 0
M  V30 5 C 3.8606 0.7674 0.0 0
M  V30 6 N -0.0354 3.0224 0.0 0
M  V30 7 C 2.5619 3.0224 0.0 0
M  V30 8 C 3.8488 2.2786 0.0 0
M  V30 9 C -1.3459 2.2786 0.0 0
M  V30 10 N 2.8571 4.4982 0.0 0
M  V30 11 N 4.9468 3.2939 0.0 0
M  V30 12 O -1.3577 0.791 0.0 0
M  V30 13 C -2.6564 3.0342 0.0 0
M  V30 14 C 4.3329 4.6634 0.0 0
M  V30 15 C -3.9669 2.2904 0.0 0
M  V30 16 C -5.2774 3.046 0.0 0
M  V30 17 C -3.9787 0.8028 0.0 0
M  V30 18 C -6.5879 2.314 0.0 0
M  V30 19 C -5.2892 0.059 0.0 0
M  V30 20 C -6.5997 0.8264 0.0 0
M  V30 END ATOM
M  V30 BEGIN BOND
M  V30 1 1 1 2
M  V30 2 2 2 3
M  V30 3 1 2 4
M  V30 4 1 3 5
M  V30 5 1 4 6
M  V30 6 2 4 7
M  V30 7 2 5 8
M  V30 8 1 6 9
M  V30 9 1 7 10
M  V30 10 1 8 11
M  V30 11 2 9 12
M  V30 12 1 9 13
M  V30 13 2 10 14
M  V30 14 1 13 15
M  V30 15 1 15 16
M  V30 16 1 15 17
M  V30 17 1 16 18
M  V30 18 1 17 19
M  V30 19 1 18 20
M  V30 20 1 7 8
M  V30 21 1 11 14
M  V30 22 1 19 20
M  V30 END BOND
M  V30 END CTAB
M  END
>  <Molecule Name>


>  <Name>
SPE_0111

>  <Name_tmp>


>  <Smiles>
O=C(Nc1c(Cl)ncc2c1nc[nH]2)CC1CCCCC1

>  <Residue Name>
T11

$$$$
SPE_0112
Actelion Java MolfileCreator 2.0

  0  0  0  0  0  0              0 V3000
M  V30 BEGIN CTAB
M  V30 COUNTS 20 22 0 0 0
M  V30 BEGIN ATOM
M  V30 1 Cl 0.0 0.0 0.0 0
M  V30 2 C 1.2868 0.7556 0.0 0
M  V30 3 N 2.5737 0.0118 0.0 0
M  V30 4 C 1.275 2.2668 0.0 0
M  V30 5 C 3.8606 0.7674 0.0 0
M  V30 6 N -0.0354 3.0224 0.0 0
M  V30 7 C 2.5619 3.0224 0.0 0
M  V30 8 C 3.8488 2.2786 0.0 0
M  V30 9 C -1.3459 2.2786 0.0 0
M  V30 10 C 2.8571 4.4982 0.0 0
M  V30 11 N 4.9468 3.2939 0.0 0
M  V30 12 O -1.3577 0.791 0.0 0
M  V30 13 C -2.6564 3.0342 0.0 0
M  V30 14 N 4.3329 4.6634 0.0 0
M  V30 15 C -3.9669 2.2904 0.0 0
M  V30 16 C -5.2774 3.046 0.0 0
M  V30 17 C -3.9787 0.8028 0.0 0
M  V30 18 C -6.5879 2.314 0.0 0
M  V30 19 C -5.2892 0.059 0.0 0
M  V30 20 C -6.5997 0.8264 0.0 0
M  V30 END ATOM
M  V30 BEGIN BOND
M  V30 1 1 1 2
M  V30 2 2 2 3
M  V30 3 1 2 4
M  V30 4 1 3 5
M  V30 5 1 4 6
M  V30 6 2 4 7
M  V30 7 2 5 8
M  V30 8 1 6 9
M  V30 9 1 7 10
M  V30 10 1 8 11
M  V30 11 2 9 12
M  V30 12 1 9 13
M  V30 13 2 10 14
M  V30 14 1 13 15
M  V30 15 1 15 16
M  V30 16 1 15 17
M  V30 17 1 16 18
M  V30 18 1 17 19
M  V30 19 1 18 20
M  V30 20 1 7 8
M  V30 21 1 11 14
M  V30 22 1 19 20
M  V30 END BOND
M  V30 END CTAB
M  END
>  <Molecule Name>


>  <Name>
SPE_0112

>  <Name_tmp>


>  <Smiles>
O=C(Nc1c(Cl)ncc2c1cn[nH]2)CC1CCCCC1

>  <Residue Name>
T12

$$$$
SPE_0113
Actelion Java MolfileCreator 2.0

  0  0  0  0  0  0              0 V3000
M  V30 BEGIN CTAB
M  V30 COUNTS 21 23 0 0 0
M  V30 BEGIN ATOM
M  V30 1 Cl 0.0 0.0 0.0 0
M  V30 2 C 1.2861 0.7551 0.0 0
M  V30 3 N 2.5723 0.0117 0.0 0
M  V30 4 C 1.2743 2.2655 0.0 0
M  V30 5 C 3.8585 0.7669 0.0 0
M  V30 6 N -0.0353 3.0207 0.0 0
M  V30 7 C 2.5605 3.0207 0.0 0
M  V30 8 C 3.8467 2.2773 0.0 0
M  V30 9 C -1.3451 2.2773 0.0 0
M  V30 10 N 2.5487 4.5311 0.0 0
M  V30 11 N 5.1328 3.0325 0.0 0
M  V30 12 O -1.3569 0.7905 0.0 0
M  V30 13 C -2.6549 3.0325 0.0 0
M  V30 14 C 3.8349 5.298 0.0 0
M  V30 15 C 5.121 4.5429 0.0 0
M  V30 16 C -3.9647 2.2891 0.0 0
M  V30 17 C -5.2744 3.0443 0.0 0
M  V30 18 C -3.9765 0.8023 0.0 0
M  V30 19 C -6.5842 2.3127 0.0 0
M  V30 20 C -5.2862 0.0589 0.0 0
M  V30 21 C -6.596 0.8259 0.0 0
M  V30 END ATOM
M  V30 BEGIN BOND
M  V30 1 1 1 2
M  V30 2 1 2 3
M  V30 3 2 2 4
M  V30 4 2 3 5
M  V30 5 1 4 6
M  V30 6 1 4 7
M  V30 7 1 5 8
M  V30 8 1 6 9
M  V30 9 2 7 10
M  V30 10 2 8 11
M  V30 11 2 9 12
M  V30 12 1 9 13
M  V30 13 1 10 14
M  V30 14 1 11 15
M  V30 15 1 13 16
M  V30 16 1 16 17
M  V30 17 1 16 18
M  V30 18 1 17 19
M  V30 19 1 18 20
M  V30 20 1 19 21
M  V30 21 1 7 8
M  V30 22 2 14 15
M  V30 23 1 20 21
M  V30 END BOND
M  V30 END CTAB
M  END
>  <Molecule Name>


>  <Name>
SPE_0113

>  <Name_tmp>


>  <Smiles>
O=C(Nc1c(Cl)ncc2c1nccn2)CC1CCCCC1

>  <Residue Name>
T13

$$$$
SPE_0114
Actelion Java MolfileCreator 2.0

  0  0  0  0  0  0              0 V3000
M  V30 BEGIN CTAB
M  V30 COUNTS 27 28 0 0 0
M  V30 BEGIN ATOM
M  V30 1 F 4.3301 0.9999 0.0 0
M  V30 2 C 3.4641 1.5 0.0 0
M  V30 3 N 3.4641 2.5 0.0 0
M  V30 4 C 2.598 1.0 0.0 0
M  V30 5 C 2.598 3.0 0.0 0
M  V30 6 N 2.598 0.0 0.0 0
M  V30 7 C 1.732 1.4999 0.0 0
M  V30 8 C 1.732 2.5 0.0 0
M  V30 9 C 3.4641 -0.5 0.0 0
M  V30 10 C 1.732 -0.5 0.0 0
M  V30 11 N 0.866 2.9999 0.0 0
M  V30 12 O 3.4641 -1.5 0.0 0
M  V30 13 N 4.3301 0.0 0.0 0
M  V30 14 O 1.732 -1.5 0.0 0
M  V30 15 C 0.866 0.0 0.0 0
M  V30 16 C 5.1961 -0.5 0.0 0
M  V30 17 C 0.0 -0.5 0.0 0
M  V30 18 C 6.0621 0.0 0.0 0
M  V30 19 C 5.1961 -1.4999 0.0 0
M  V30 20 N 6.9282 -0.4999 0.0 0
M  V30 21 N 6.0621 1.0 0.0 0
M  V30 22 C 6.0621 -1.9999 0.0 0
M  V30 23 C 6.9282 -1.5 0.0 0
M  V30 24 C 5.1961 1.4999 0.0 0
M  V30 25 C 6.0621 -2.9999 0.0 0
M  V30 26 C 5.1961 2.4999 0.0 0
M  V30 27 N 6.0621 -3.9999 0.0 0
M  V30 END ATOM
M  V30 BEGIN BOND
M  V30 1 1 1 2
M  V30 2 2 2 3
M  V30 3 1 2 4
M  V30 4 1 3 5
M  V30 5 1 4 6
M  V30 6 2 4 7
M  V30 7 2 5 8
M  V30 8 1 6 9
M  V30 9 1 6 10
M  V30 10 1 8 11
M  V30 11 2 9 12
M  V30 12 1 9 13
M  V30 13 2 10 14
M  V30 14 1 10 15
M  V30 15 1 13 16
M  V30 16 2 15 17
M  V30 17 2 16 18
M  V30 18 1 16 19
M  V30 19 1 18 20
M  V30 20 1 18 21
M  V30 21 2 19 22
M  V30 22 2 20 23
M  V30 23 1 21 24
M  V30 24 1 22 25
M  V30 25 1 24 26
M  V30 26 3 25 27
M  V30 27 1 7 8
M  V30 28 1 22 23
M  V30 END BOND
M  V30 END CTAB
M  END
>  <Molecule Name>


>  <Name>
SPE_0114

>  <Name_tmp>


>  <Smiles>
CCNc1ncc(cc1NC(=O)N(c1cc(N)cnc1F)C(=O)C=C)C#N

>  <Residue Name>
T14

$$$$
SPE_0115
Actelion Java MolfileCreator 2.0

  0  0  0  0  0  0              0 V3000
M  V30 BEGIN CTAB
M  V30 COUNTS 26 27 0 0 0
M  V30 BEGIN ATOM
M  V30 1 O 3.4641 -1.5 0.0 0
M  V30 2 C 3.4641 -0.5 0.0 0
M  V30 3 N 2.598 0.0 0.0 0
M  V30 4 N 4.3301 0.0 0.0 0
M  V30 5 C 2.598 1.0 0.0 0
M  V30 6 C 1.732 -0.5 0.0 0
M  V30 7 C 5.1961 -0.5 0.0 0
M  V30 8 C 3.4641 1.5 0.0 0
M  V30 9 C 1.732 1.4999 0.0 0
M  V30 10 O 1.732 -1.5 0.0 0
M  V30 11 C 0.866 0.0 0.0 0
M  V30 12 C 6.0621 0.0 0.0 0
M  V30 13 C 5.1961 -1.4999 0.0 0
M  V30 14 N 3.4641 2.5 0.0 0
M  V30 15 C 1.732 2.5 0.0 0
M  V30 16 C 0.0 -0.5 0.0 0
M  V30 17 N 6.9282 -0.4999 0.0 0
M  V30 18 N 6.0621 1.0 0.0 0
M  V30 19 C 6.0621 -1.9999 0.0 0
M  V30 20 C 2.598 3.0 0.0 0
M  V30 21 N 0.866 3.0 0.0 0
M  V30 22 C 6.9282 -1.5 0.0 0
M  V30 23 C 5.1961 1.4999 0.0 0
M  V30 24 C 6.0621 -2.9999 0.0 0
M  V30 25 C 5.1961 2.4999 0.0 0
M  V30 26 N 6.0621 -3.9999 0.0 0
M  V30 END ATOM
M  V30 BEGIN BOND
M  V30 1 2 1 2
M  V30 2 1 2 3
M  V30 3 1 2 4
M  V30 4 1 3 5
M  V30 5 1 3 6
M  V30 6 1 4 7
M  V30 7 2 5 8
M  V30 8 1 5 9
M  V30 9 2 6 10
M  V30 10 1 6 11
M  V30 11 2 7 12
M  V30 12 1 7 13
M  V30 13 1 8 14
M  V30 14 2 9 15
M  V30 15 2 11 16
M  V30 16 1 12 17
M  V30 17 1 12 18
M  V30 18 2 13 19
M  V30 19 2 14 20
M  V30 20 1 15 21
M  V30 21 2 17 22
M  V30 22 1 18 23
M  V30 23 1 19 24
M  V30 24 1 23 25
M  V30 25 3 24 26
M  V30 26 1 15 20
M  V30 27 1 19 22
M  V30 END BOND
M  V30 END CTAB
M  END
>  <Molecule Name>


>  <Name>
SPE_0115

>  <Name_tmp>


>  <Smiles>
CCNc1ncc(cc1NC(=O)N(c1cncc(c1)N)C(=O)C=C)C#N

>  <Residue Name>
T15

$$$$
SPE_0116
Actelion Java MolfileCreator 2.0

  0  0  0  0  0  0              0 V3000
M  V30 BEGIN CTAB
M  V30 COUNTS 27 28 0 0 0
M  V30 BEGIN ATOM
M  V30 1 O 4.3301 0.9999 0.0 0
M  V30 2 C 4.3301 0.0 0.0 0
M  V30 3 N 3.4641 -0.5 0.0 0
M  V30 4 C 5.1961 -0.5 0.0 0
M  V30 5 C 2.598 0.0 0.0 0 CFG=2
M  V30 6 C 6.0621 0.0 0.0 0
M  V30 7 C 2.598 1.0 0.0 0
M  V30 8 C 1.732 -0.5 0.0 0
M  V30 9 C 3.4641 1.5 0.0 0
M  V30 10 C 1.732 1.4999 0.0 0
M  V30 11 O 1.732 -1.5 0.0 0
M  V30 12 N 0.866 0.0 0.0 0
M  V30 13 N 3.4641 2.5 0.0 0
M  V30 14 C 1.732 2.5 0.0 0
M  V30 15 C 0.0 -0.5 0.0 0
M  V30 16 C 2.598 3.0 0.0 0
M  V30 17 N 0.866 3.0 0.0 0
M  V30 18 C -0.866 0.0 0.0 0
M  V30 19 C 0.0 -1.4999 0.0 0
M  V30 20 N -1.732 -0.4999 0.0 0
M  V30 21 N -0.866 1.0 0.0 0
M  V30 22 C -0.866 -1.9999 0.0 0
M  V30 23 C -1.732 -1.4999 0.0 0
M  V30 24 C 0.0 1.5 0.0 0
M  V30 25 C -0.866 -2.9999 0.0 0
M  V30 26 C 0.0 2.5 0.0 0
M  V30 27 N -0.866 -3.9999 0.0 0
M  V30 END ATOM
M  V30 BEGIN BOND
M  V30 1 2 1 2
M  V30 2 1 2 3
M  V30 3 1 2 4
M  V30 4 1 5 3 CFG=1
M  V30 5 2 4 6
M  V30 6 1 5 7
M  V30 7 1 5 8
M  V30 8 2 7 9
M  V30 9 1 7 10
M  V30 10 2 8 11
M  V30 11 1 8 12
M  V30 12 1 9 13
M  V30 13 2 10 14
M  V30 14 1 12 15
M  V30 15 2 13 16
M  V30 16 1 14 17
M  V30 17 2 15 18
M  V30 18 1 15 19
M  V30 19 1 18 20
M  V30 20 1 18 21
M  V30 21 2 19 22
M  V30 22 2 20 23
M  V30 23 1 21 24
M  V30 24 1 22 25
M  V30 25 1 24 26
M  V30 26 3 25 27
M  V30 27 1 14 16
M  V30 28 1 22 23
M  V30 END BOND
M  V30 BEGIN COLLECTION
M  V30 MDLV30/STEABS ATOMS=(1 5)
M  V30 END COLLECTION
M  V30 END CTAB
M  END
>  <Molecule Name>


>  <Name>
SPE_0116

>  <Name_tmp>


>  <Smiles>
CCNc1ncc(cc1NC(=O)[C@@H](c1cncc(c1)N)NC(=O)C=C)C#N

>  <Residue Name>
T16

$$$$
SPE_0117
Actelion Java MolfileCreator 2.0

  0  0  0  0  0  0              0 V3000
M  V30 BEGIN CTAB
M  V30 COUNTS 28 29 0 0 0
M  V30 BEGIN ATOM
M  V30 1 F 5.1961 -1.4999 0.0 0
M  V30 2 C 4.3301 -1.9999 0.0 0
M  V30 3 N 4.3301 -2.9999 0.0 0
M  V30 4 C 3.4641 -1.5 0.0 0
M  V30 5 C 3.4641 -3.5 0.0 0
M  V30 6 C 2.598 -2.0 0.0 0
M  V30 7 C 3.4641 -0.5 0.0 0 CFG=1
M  V30 8 C 2.598 -3.0 0.0 0
M  V30 9 N 2.598 0.0 0.0 0
M  V30 10 C 4.3301 0.0 0.0 0
M  V30 11 N 1.732 -3.5 0.0 0
M  V30 12 C 1.732 -0.5 0.0 0
M  V30 13 O 4.3301 1.0 0.0 0
M  V30 14 N 5.1961 -0.5 0.0 0
M  V30 15 O 1.732 -1.5 0.0 0
M  V30 16 C 0.866 0.0 0.0 0
M  V30 17 C 6.0621 0.0 0.0 0
M  V30 18 C 0.0 -0.5 0.0 0
M  V30 19 C 6.9282 -0.5 0.0 0
M  V30 20 C 6.0621 0.9999 0.0 0
M  V30 21 N 7.7942 0.0 0.0 0
M  V30 22 N 6.9282 -1.5 0.0 0
M  V30 23 C 6.9282 1.4999 0.0 0
M  V30 24 C 7.7942 0.9999 0.0 0
M  V30 25 C 6.0621 -2.0 0.0 0
M  V30 26 C 6.9282 2.4999 0.0 0
M  V30 27 C 6.0621 -3.0 0.0 0
M  V30 28 N 6.9282 3.4999 0.0 0
M  V30 END ATOM
M  V30 BEGIN BOND
M  V30 1 1 1 2
M  V30 2 2 2 3
M  V30 3 1 2 4
M  V30 4 1 3 5
M  V30 5 2 4 6
M  V30 6 1 7 4
M  V30 7 2 5 8
M  V30 8 1 7 9 CFG=1
M  V30 9 1 7 10
M  V30 10 1 8 11
M  V30 11 1 9 12
M  V30 12 2 10 13
M  V30 13 1 10 14
M  V30 14 2 12 15
M  V30 15 1 12 16
M  V30 16 1 14 17
M  V30 17 2 16 18
M  V30 18 2 17 19
M  V30 19 1 17 20
M  V30 20 1 19 21
M  V30 21 1 19 22
M  V30 22 2 20 23
M  V30 23 2 21 24
M  V30 24 1 22 25
M  V30 25 1 23 26
M  V30 26 1 25 27
M  V30 27 3 26 28
M  V30 28 1 6 8
M  V30 29 1 23 24
M  V30 END BOND
M  V30 BEGIN COLLECTION
M  V30 MDLV30/STEABS ATOMS=(1 7)
M  V30 END COLLECTION
M  V30 END CTAB
M  END
>  <Molecule Name>


>  <Name>
SPE_0117

>  <Name_tmp>


>  <Smiles>
CCNc1ncc(cc1NC(=O)[C@@H](c1cc(N)cnc1F)NC(=O)C=C)C#N

>  <Residue Name>
T17

$$$$
SPE_0118
Actelion Java MolfileCreator 2.0

  0  0  0  0  0  0              0 V3000
M  V30 BEGIN CTAB
M  V30 COUNTS 30 32 0 0 0
M  V30 BEGIN ATOM
M  V30 1 F 5.2241 -1.7787 0.0 0
M  V30 2 C 4.2731 -2.0877 0.0 0
M  V30 3 N 3.9641 -3.0388 0.0 0
M  V30 4 C 3.4641 -1.5 0.0 0
M  V30 5 C 2.9641 -3.0388 0.0 0
M  V30 6 C 2.655 -2.0877 0.0 0
M  V30 7 C 3.4641 -0.5 0.0 0 CFG=1
M  V30 8 N 2.2949 -3.7819 0.0 0
M  V30 9 C 1.6769 -1.8798 0.0 0
M  V30 10 N 2.598 0.0 0.0 0
M  V30 11 C 4.3301 0.0 0.0 0
M  V30 12 C 1.3168 -3.574 0.0 0
M  V30 13 C 1.0078 -2.623 0.0 0
M  V30 14 C 2.598 0.9999 0.0 0
M  V30 15 O 4.3301 1.0 0.0 0
M  V30 16 N 5.1961 -0.5 0.0 0
M  V30 17 O 3.4641 1.4999 0.0 0
M  V30 18 C 1.732 1.4999 0.0 0
M  V30 19 C 6.0621 0.0 0.0 0
M  V30 20 C 1.732 2.4999 0.0 0
M  V30 21 C 6.9282 -0.5 0.0 0
M  V30 22 C 6.0621 0.9999 0.0 0
M  V30 23 N 7.7942 0.0 0.0 0
M  V30 24 N 6.9282 -1.4999 0.0 0
M  V30 25 C 6.9282 1.4999 0.0 0
M  V30 26 C 7.7942 0.9999 0.0 0
M  V30 27 C 7.7942 -2.0 0.0 0
M  V30 28 C 6.9282 2.4999 0.0 0
M  V30 29 C 7.7942 -2.9999 0.0 0
M  V30 30 N 6.9282 3.5 0.0 0
M  V30 END ATOM
M  V30 BEGIN BOND
M  V30 1 1 1 2
M  V30 2 1 2 3
M  V30 3 2 2 4
M  V30 4 1 3 5
M  V30 5 1 4 6
M  V30 6 1 7 4
M  V30 7 1 5 8
M  V30 8 1 6 9
M  V30 9 1 7 10 CFG=1
M  V30 10 1 7 11
M  V30 11 2 8 12
M  V30 12 2 9 13
M  V30 13 1 10 14
M  V30 14 2 11 15
M  V30 15 1 11 16
M  V30 16 2 14 17
M  V30 17 1 14 18
M  V30 18 1 16 19
M  V30 19 2 18 20
M  V30 20 2 19 21
M  V30 21 1 19 22
M  V30 22 1 21 23
M  V30 23 1 21 24
M  V30 24 2 22 25
M  V30 25 2 23 26
M  V30 26 1 24 27
M  V30 27 1 25 28
M  V30 28 1 27 29
M  V30 29 3 28 30
M  V30 30 2 5 6
M  V30 31 1 12 13
M  V30 32 1 25 26
M  V30 END BOND
M  V30 BEGIN COLLECTION
M  V30 MDLV30/STEABS ATOMS=(1 7)
M  V30 END COLLECTION
M  V30 END CTAB
M  END
>  <Molecule Name>


>  <Name>
SPE_0118

>  <Name_tmp>


>  <Smiles>
CCNc1ncc(cc1NC(=O)[C@@H](c1c(F)[nH]c2c1cccn2)NC(=O)C=C)C#N

>  <Residue Name>
T18

$$$$
SPE_0119
Actelion Java MolfileCreator 2.0

  0  0  0  0  0  0              0 V3000
M  V30 BEGIN CTAB
M  V30 COUNTS 29 31 0 0 0
M  V30 BEGIN ATOM
M  V30 1 O 4.3301 0.9999 0.0 0
M  V30 2 C 4.3301 0.0 0.0 0
M  V30 3 N 3.4641 -0.5 0.0 0
M  V30 4 C 5.1961 -0.5 0.0 0
M  V30 5 C 2.598 0.0 0.0 0 CFG=2
M  V30 6 C 6.0621 0.0 0.0 0
M  V30 7 C 2.598 1.0 0.0 0
M  V30 8 C 1.732 -0.5 0.0 0
M  V30 9 C 1.789 1.5877 0.0 0
M  V30 10 C 3.407 1.5877 0.0 0
M  V30 11 O 1.732 -1.5 0.0 0
M  V30 12 N 0.866 0.0 0.0 0
M  V30 13 C 2.098 2.5388 0.0 0
M  V30 14 C 0.8109 1.3798 0.0 0
M  V30 15 N 3.098 2.5388 0.0 0
M  V30 16 C 0.0 -0.5 0.0 0
M  V30 17 N 1.4289 3.2819 0.0 0
M  V30 18 C 0.1417 2.123 0.0 0
M  V30 19 C 0.0 -1.4999 0.0 0
M  V30 20 C -0.866 0.0 0.0 0
M  V30 21 C 0.4507 3.074 0.0 0
M  V30 22 N -0.866 -2.0 0.0 0
M  V30 23 N 0.866 -1.9999 0.0 0
M  V30 24 C -1.732 -0.5 0.0 0
M  V30 25 C -1.732 -1.5 0.0 0
M  V30 26 C 0.866 -2.9999 0.0 0
M  V30 27 C -2.598 0.0 0.0 0
M  V30 28 C 1.732 -3.4999 0.0 0
M  V30 29 N -3.4641 0.4999 0.0 0
M  V30 END ATOM
M  V30 BEGIN BOND
M  V30 1 2 1 2
M  V30 2 1 2 3
M  V30 3 1 2 4
M  V30 4 1 5 3 CFG=1
M  V30 5 2 4 6
M  V30 6 1 5 7
M  V30 7 1 5 8
M  V30 8 1 7 9
M  V30 9 2 7 10
M  V30 10 2 8 11
M  V30 11 1 8 12
M  V30 12 2 9 13
M  V30 13 1 9 14
M  V30 14 1 10 15
M  V30 15 1 12 16
M  V30 16 1 13 17
M  V30 17 2 14 18
M  V30 18 2 16 19
M  V30 19 1 16 20
M  V30 20 2 17 21
M  V30 21 1 19 22
M  V30 22 1 19 23
M  V30 23 2 20 24
M  V30 24 2 22 25
M  V30 25 1 23 26
M  V30 26 1 24 27
M  V30 27 1 26 28
M  V30 28 3 27 29
M  V30 29 1 13 15
M  V30 30 1 18 21
M  V30 31 1 24 25
M  V30 END BOND
M  V30 BEGIN COLLECTION
M  V30 MDLV30/STEABS ATOMS=(1 5)
M  V30 END COLLECTION
M  V30 END CTAB
M  END
>  <Molecule Name>


>  <Name>
SPE_0119

>  <Name_tmp>


>  <Smiles>
CCNc1ncc(cc1NC(=O)[C@@H](c1c[nH]c2c1cccn2)NC(=O)C=C)C#N

>  <Residue Name>
T19

$$$$
SPE_0120
Actelion Java MolfileCreator 2.0

  0  0  0  0  0  0              0 V3000
M  V30 BEGIN CTAB
M  V30 COUNTS 28 30 0 0 0
M  V30 BEGIN ATOM
M  V30 1 O 3.4641 -1.5 0.0 0
M  V30 2 C 3.4641 -0.5 0.0 0
M  V30 3 N 2.598 0.0 0.0 0
M  V30 4 N 4.3301 0.0 0.0 0
M  V30 5 C 2.598 1.0 0.0 0
M  V30 6 C 1.732 -0.5 0.0 0
M  V30 7 C 5.1961 -0.5 0.0 0
M  V30 8 C 3.407 1.5877 0.0 0
M  V30 9 C 1.789 1.5877 0.0 0
M  V30 10 O 1.732 -1.5 0.0 0
M  V30 11 C 0.866 0.0 0.0 0
M  V30 12 C 6.0621 0.0 0.0 0
M  V30 13 C 5.1961 -1.4999 0.0 0
M  V30 14 C 3.098 2.5388 0.0 0
M  V30 15 C 4.3852 1.3798 0.0 0
M  V30 16 N 2.098 2.5388 0.0 0
M  V30 17 C 0.0 -0.5 0.0 0
M  V30 18 N 6.9282 -0.4999 0.0 0
M  V30 19 N 6.0621 1.0 0.0 0
M  V30 20 C 6.0621 -1.9999 0.0 0
M  V30 21 N 3.7672 3.2819 0.0 0
M  V30 22 C 5.0543 2.123 0.0 0
M  V30 23 C 6.9282 -1.5 0.0 0
M  V30 24 C 6.9282 1.5 0.0 0
M  V30 25 C 6.0621 -2.9999 0.0 0
M  V30 26 C 4.7453 3.074 0.0 0
M  V30 27 C 6.9282 2.5 0.0 0
M  V30 28 N 6.0621 -3.9999 0.0 0
M  V30 END ATOM
M  V30 BEGIN BOND
M  V30 1 2 1 2
M  V30 2 1 2 3
M  V30 3 1 2 4
M  V30 4 1 3 5
M  V30 5 1 3 6
M  V30 6 1 4 7
M  V30 7 1 5 8
M  V30 8 2 5 9
M  V30 9 2 6 10
M  V30 10 1 6 11
M  V30 11 2 7 12
M  V30 12 1 7 13
M  V30 13 2 8 14
M  V30 14 1 8 15
M  V30 15 1 9 16
M  V30 16 2 11 17
M  V30 17 1 12 18
M  V30 18 1 12 19
M  V30 19 2 13 20
M  V30 20 1 14 21
M  V30 21 2 15 22
M  V30 22 2 18 23
M  V30 23 1 19 24
M  V30 24 1 20 25
M  V30 25 2 21 26
M  V30 26 1 24 27
M  V30 27 3 25 28
M  V30 28 1 14 16
M  V30 29 1 20 23
M  V30 30 1 22 26
M  V30 END BOND
M  V30 END CTAB
M  END
>  <Molecule Name>


>  <Name>
SPE_0120

>  <Name_tmp>


>  <Smiles>
CCNc1ncc(cc1NC(=O)N(c1c[nH]c2c1cccn2)C(=O)C=C)C#N

>  <Residue Name>
T20

$$$$
SPE_0121
Actelion Java MolfileCreator 2.0

  0  0  0  0  0  0              0 V3000
M  V30 BEGIN CTAB
M  V30 COUNTS 29 31 0 0 0
M  V30 BEGIN ATOM
M  V30 1 F 4.3581 1.2787 0.0 0
M  V30 2 C 3.407 1.5877 0.0 0
M  V30 3 N 3.098 2.5388 0.0 0
M  V30 4 C 2.598 1.0 0.0 0
M  V30 5 C 2.098 2.5388 0.0 0
M  V30 6 N 2.598 0.0 0.0 0
M  V30 7 C 1.789 1.5877 0.0 0
M  V30 8 N 1.4289 3.2819 0.0 0
M  V30 9 C 3.4641 -0.5 0.0 0
M  V30 10 C 1.732 -0.5 0.0 0
M  V30 11 C 0.8109 1.3798 0.0 0
M  V30 12 C 0.4507 3.074 0.0 0
M  V30 13 O 3.4641 -1.5 0.0 0
M  V30 14 N 4.3301 0.0 0.0 0
M  V30 15 O 1.732 -1.5 0.0 0
M  V30 16 C 0.866 0.0 0.0 0
M  V30 17 C 0.1417 2.123 0.0 0
M  V30 18 C 5.1961 -0.5 0.0 0
M  V30 19 C 0.0 -0.5 0.0 0
M  V30 20 C 6.0621 0.0 0.0 0
M  V30 21 C 5.1961 -1.4999 0.0 0
M  V30 22 N 6.9282 -0.4999 0.0 0
M  V30 23 N 6.0621 1.0 0.0 0
M  V30 24 C 6.0621 -1.9999 0.0 0
M  V30 25 C 6.9282 -1.5 0.0 0
M  V30 26 C 5.1961 1.4999 0.0 0
M  V30 27 C 6.0621 -2.9999 0.0 0
M  V30 28 C 5.1961 2.4999 0.0 0
M  V30 29 N 6.0621 -3.9999 0.0 0
M  V30 END ATOM
M  V30 BEGIN BOND
M  V30 1 1 1 2
M  V30 2 1 2 3
M  V30 3 2 2 4
M  V30 4 1 3 5
M  V30 5 1 4 6
M  V30 6 1 4 7
M  V30 7 1 5 8
M  V30 8 1 6 9
M  V30 9 1 6 10
M  V30 10 1 7 11
M  V30 11 2 8 12
M  V30 12 2 9 13
M  V30 13 1 9 14
M  V30 14 2 10 15
M  V30 15 1 10 16
M  V30 16 2 11 17
M  V30 17 1 14 18
M  V30 18 2 16 19
M  V30 19 2 18 20
M  V30 20 1 18 21
M  V30 21 1 20 22
M  V30 22 1 20 23
M  V30 23 2 21 24
M  V30 24 2 22 25
M  V30 25 1 23 26
M  V30 26 1 24 27
M  V30 27 1 26 28
M  V30 28 3 27 29
M  V30 29 2 5 7
M  V30 30 1 12 17
M  V30 31 1 24 25
M  V30 END BOND
M  V30 END CTAB
M  END
>  <Molecule Name>


>  <Name>
SPE_0121

>  <Name_tmp>


>  <Smiles>
CCNc1ncc(cc1NC(=O)N(c1c(F)[nH]c2c1cccn2)C(=O)C=C)C#N

>  <Residue Name>
T21

$$$$
