SPE_0024
Actelion Java MolfileCreator 2.0

  0  0  0  0  0  0              0 V3000
M  V30 BEGIN CTAB
M  V30 COUNTS 16 17 0 0 0
M  V30 BEGIN ATOM
M  V30 1 O 0.0 0.0 0.0 0
M  V30 2 C -0.0118 1.5162 0.0 0
M  V30 3 N 1.2793 2.2743 0.0 0
M  V30 4 N -1.3266 2.2743 0.0 0
M  V30 5 C 2.5704 1.5399 0.0 0
M  V30 6 C -2.6415 1.5399 0.0 0
M  V30 7 C 2.5586 0.0473 0.0 0
M  V30 8 C 3.8616 2.298 0.0 0
M  V30 9 C -3.9563 2.298 0.0 0
M  V30 10 C -2.6533 0.0473 0.0 0
M  V30 11 N 3.8497 -0.687 0.0 0
M  V30 12 C 5.1527 1.5517 0.0 0
M  V30 13 C -5.2712 1.5635 0.0 0
M  V30 14 C -3.9682 -0.687 0.0 0
M  V30 15 C 5.1409 0.071 0.0 0
M  V30 16 C -5.283 0.071 0.0 0
M  V30 END ATOM
M  V30 BEGIN BOND
M  V30 1 2 1 2
M  V30 2 1 2 3
M  V30 3 1 2 4
M  V30 4 1 3 5
M  V30 5 1 4 6
M  V30 6 2 5 7
M  V30 7 1 5 8
M  V30 8 2 6 9
M  V30 9 1 6 10
M  V30 10 1 7 11
M  V30 11 2 8 12
M  V30 12 1 9 13
M  V30 13 2 10 14
M  V30 14 2 11 15
M  V30 15 2 13 16
M  V30 16 1 12 15
M  V30 17 1 14 16
M  V30 END BOND
M  V30 END CTAB
M  END
>  <Name>
SPE_0024

>  <Name_tmp>
x0434

>  <Smiles>
O=C(Nc1ccccc1)Nc1cnccc1

>  <Residue Name>
S24

$$$$
SPE_0025
Actelion Java MolfileCreator 2.0

  0  0  0  0  0  0              0 V3000
M  V30 BEGIN CTAB
M  V30 COUNTS 17 18 0 0 0
M  V30 BEGIN ATOM
M  V30 1 O 0.0 0.0 0.0 0
M  V30 2 C -0.0239 1.5315 0.0 0
M  V30 3 N 1.2563 2.2973 0.0 0
M  V30 4 N -1.352 2.2973 0.0 0
M  V30 5 C 2.5366 1.5674 0.0 0
M  V30 6 C -2.6802 1.5674 0.0 0
M  V30 7 C 2.5127 0.0837 0.0 0
M  V30 8 C 3.8169 2.3332 0.0 0
M  V30 9 C -4.0084 2.3332 0.0 0
M  V30 10 C -2.7041 0.0837 0.0 0
M  V30 11 N 3.793 -0.6461 0.0 0
M  V30 12 C 5.0972 1.5913 0.0 0
M  V30 13 C -5.3365 1.6033 0.0 0
M  V30 14 C -4.0323 -0.6461 0.0 0
M  V30 15 C 5.0733 0.1196 0.0 0
M  V30 16 N 6.3895 2.3452 0.0 0
M  V30 17 C -5.3604 0.1196 0.0 0
M  V30 END ATOM
M  V30 BEGIN BOND
M  V30 1 2 1 2
M  V30 2 1 2 3
M  V30 3 1 2 4
M  V30 4 1 3 5
M  V30 5 1 4 6
M  V30 6 2 5 7
M  V30 7 1 5 8
M  V30 8 2 6 9
M  V30 9 1 6 10
M  V30 10 1 7 11
M  V30 11 2 8 12
M  V30 12 1 9 13
M  V30 13 2 10 14
M  V30 14 2 11 15
M  V30 15 1 12 16
M  V30 16 2 13 17
M  V30 17 1 12 15
M  V30 18 1 14 17
M  V30 END BOND
M  V30 END CTAB
M  END
>  <Name>
SPE_0025

>  <Name_tmp>
x0434_01

>  <Smiles>
Nc1cc(NC(Nc2ccccc2)=O)cnc1

>  <Residue Name>
S25

$$$$
SPE_0026
Actelion Java MolfileCreator 2.0

  0  0  0  0  0  0              0 V3000
M  V30 BEGIN CTAB
M  V30 COUNTS 18 19 0 0 0
M  V30 BEGIN ATOM
M  V30 1 O 0.0 0.0 0.0 0
M  V30 2 C -0.0239 1.5321 0.0 0
M  V30 3 N 1.2568 2.2981 0.0 0
M  V30 4 N -1.3525 2.2981 0.0 0
M  V30 5 C 2.5375 1.568 0.0 0
M  V30 6 C -2.6811 1.568 0.0 0
M  V30 7 C 2.5136 0.0837 0.0 0
M  V30 8 C 3.8182 2.334 0.0 0
M  V30 9 C -4.0098 2.334 0.0 0
M  V30 10 C -2.7051 0.0837 0.0 0
M  V30 11 N 3.7943 -0.6463 0.0 0
M  V30 12 C 5.099 1.5919 0.0 0
M  V30 13 C -5.3384 1.6039 0.0 0
M  V30 14 C -4.0337 -0.6463 0.0 0
M  V30 15 C 5.075 0.1196 0.0 0
M  V30 16 N 6.3917 2.346 0.0 0
M  V30 17 C -5.3623 0.1196 0.0 0
M  V30 18 C 7.6844 1.6039 0.0 0
M  V30 END ATOM
M  V30 BEGIN BOND
M  V30 1 2 1 2
M  V30 2 1 2 3
M  V30 3 1 2 4
M  V30 4 1 3 5
M  V30 5 1 4 6
M  V30 6 2 5 7
M  V30 7 1 5 8
M  V30 8 2 6 9
M  V30 9 1 6 10
M  V30 10 1 7 11
M  V30 11 2 8 12
M  V30 12 1 9 13
M  V30 13 2 10 14
M  V30 14 2 11 15
M  V30 15 1 12 16
M  V30 16 2 13 17
M  V30 17 1 16 18
M  V30 18 1 12 15
M  V30 19 1 14 17
M  V30 END BOND
M  V30 END CTAB
M  END
>  <Name>
SPE_0026

>  <Name_tmp>
x0434_02

>  <Smiles>
CNc1cc(NC(Nc2ccccc2)=O)cnc1

>  <Residue Name>
S26

$$$$
SPE_0027
Actelion Java MolfileCreator 2.0

  0  0  0  0  0  0              0 V3000
M  V30 BEGIN CTAB
M  V30 COUNTS 19 20 0 0 0
M  V30 BEGIN ATOM
M  V30 1 O 0.0 0.0 0.0 0
M  V30 2 C -0.0239 1.531 0.0 0
M  V30 3 N 1.2559 2.2966 0.0 0
M  V30 4 N -1.3516 2.2966 0.0 0
M  V30 5 C 2.5358 1.5669 0.0 0
M  V30 6 C -2.6793 1.5669 0.0 0
M  V30 7 C 2.5119 0.0837 0.0 0
M  V30 8 C 3.8157 2.3324 0.0 0
M  V30 9 C -4.0071 2.3324 0.0 0
M  V30 10 C -2.7033 0.0837 0.0 0
M  V30 11 N 3.7918 -0.6459 0.0 0
M  V30 12 C 5.0956 1.5908 0.0 0
M  V30 13 C -5.3348 1.6028 0.0 0
M  V30 14 C -4.031 -0.6459 0.0 0
M  V30 15 C 5.0716 0.1196 0.0 0
M  V30 16 N 6.3874 2.3444 0.0 0
M  V30 17 C -5.3587 0.1196 0.0 0
M  V30 18 C 7.6792 1.6028 0.0 0
M  V30 19 C 6.3754 3.8635 0.0 0
M  V30 END ATOM
M  V30 BEGIN BOND
M  V30 1 2 1 2
M  V30 2 1 2 3
M  V30 3 1 2 4
M  V30 4 1 3 5
M  V30 5 1 4 6
M  V30 6 2 5 7
M  V30 7 1 5 8
M  V30 8 2 6 9
M  V30 9 1 6 10
M  V30 10 1 7 11
M  V30 11 2 8 12
M  V30 12 1 9 13
M  V30 13 2 10 14
M  V30 14 2 11 15
M  V30 15 1 12 16
M  V30 16 2 13 17
M  V30 17 1 16 18
M  V30 18 1 16 19
M  V30 19 1 12 15
M  V30 20 1 14 17
M  V30 END BOND
M  V30 END CTAB
M  END
>  <Name>
SPE_0027

>  <Name_tmp>
x0434_03

>  <Smiles>
CN(C)c1cc(NC(Nc2ccccc2)=O)cnc1

>  <Residue Name>
S27

$$$$
SPE_0028
Actelion Java MolfileCreator 2.0

  0  0  0  0  0  0              0 V3000
M  V30 BEGIN CTAB
M  V30 COUNTS 20 22 0 0 0
M  V30 BEGIN ATOM
M  V30 1 O 0.0 0.0 0.0 0
M  V30 2 C -0.0362 1.5474 0.0 0
M  V30 3 N 1.233 2.3211 0.0 0
M  V30 4 N -1.3781 2.3211 0.0 0
M  V30 5 C 2.5024 1.5957 0.0 0
M  V30 6 C -2.72 1.5957 0.0 0
M  V30 7 C 3.7718 2.3694 0.0 0
M  V30 8 C 2.4661 0.1208 0.0 0
M  V30 9 C -4.0619 2.3694 0.0 0
M  V30 10 C -2.7563 0.1208 0.0 0
M  V30 11 C 5.0411 1.632 0.0 0
M  V30 12 C 3.7476 3.8927 0.0 0
M  V30 13 N 3.7355 -0.6044 0.0 0
M  V30 14 C -5.4038 1.6441 0.0 0
M  V30 15 C -4.0982 -0.6044 0.0 0
M  V30 16 N 6.3105 2.4057 0.0 0
M  V30 17 C 5.0049 0.1692 0.0 0
M  V30 18 N 5.017 4.6664 0.0 0
M  V30 19 C -5.4401 0.1692 0.0 0
M  V30 20 C 6.2863 3.9289 0.0 0
M  V30 END ATOM
M  V30 BEGIN BOND
M  V30 1 2 1 2
M  V30 2 1 2 3
M  V30 3 1 2 4
M  V30 4 1 3 5
M  V30 5 1 4 6
M  V30 6 1 5 7
M  V30 7 2 5 8
M  V30 8 2 6 9
M  V30 9 1 6 10
M  V30 10 1 7 11
M  V30 11 2 7 12
M  V30 12 1 8 13
M  V30 13 1 9 14
M  V30 14 2 10 15
M  V30 15 2 11 16
M  V30 16 1 11 17
M  V30 17 1 12 18
M  V30 18 2 14 19
M  V30 19 1 16 20
M  V30 20 2 13 17
M  V30 21 1 15 19
M  V30 22 2 18 20
M  V30 END BOND
M  V30 END CTAB
M  END
>  <Name>
SPE_0028

>  <Name_tmp>
x0434_04

>  <Smiles>
O=C(Nc1ccccc1)NC1=CN=CN2NC=CC=C12

>  <Residue Name>
S28

$$$$
SPE_0029
Actelion Java MolfileCreator 2.0

  0  0  0  0  0  0              0 V3000
M  V30 BEGIN CTAB
M  V30 COUNTS 20 22 0 0 0
M  V30 BEGIN ATOM
M  V30 1 O 0.0 0.0 0.0 0
M  V30 2 C -0.0239 1.5329 0.0 0
M  V30 3 N 1.2574 2.2994 0.0 0
M  V30 4 N -1.3533 2.2994 0.0 0
M  V30 5 C 2.5389 1.5688 0.0 0
M  V30 6 C -2.6826 1.5688 0.0 0
M  V30 7 C 3.8203 2.3353 0.0 0
M  V30 8 C 2.5149 0.0838 0.0 0
M  V30 9 C -4.0119 2.3353 0.0 0
M  V30 10 C -2.7066 0.0838 0.0 0
M  V30 11 C 5.1018 1.5928 0.0 0
M  V30 12 C 3.8084 3.8443 0.0 0
M  V30 13 N 3.7964 -0.6467 0.0 0
M  V30 14 C -5.3413 1.6047 0.0 0
M  V30 15 C -4.0359 -0.6467 0.0 0
M  V30 16 N 6.3832 2.3473 0.0 0
M  V30 17 C 5.0778 0.1197 0.0 0
M  V30 18 C 5.0898 4.5988 0.0 0
M  V30 19 C -5.3652 0.1197 0.0 0
M  V30 20 C 6.3712 3.8563 0.0 0
M  V30 END ATOM
M  V30 BEGIN BOND
M  V30 1 2 1 2
M  V30 2 1 2 3
M  V30 3 1 2 4
M  V30 4 1 3 5
M  V30 5 1 4 6
M  V30 6 1 5 7
M  V30 7 2 5 8
M  V30 8 2 6 9
M  V30 9 1 6 10
M  V30 10 1 7 11
M  V30 11 2 7 12
M  V30 12 1 8 13
M  V30 13 1 9 14
M  V30 14 2 10 15
M  V30 15 2 11 16
M  V30 16 1 11 17
M  V30 17 1 12 18
M  V30 18 2 14 19
M  V30 19 1 16 20
M  V30 20 2 13 17
M  V30 21 1 15 19
M  V30 22 2 18 20
M  V30 END BOND
M  V30 END CTAB
M  END
>  <Name>
SPE_0029

>  <Name_tmp>
x0434_05

>  <Smiles>
O=C(Nc1ccccc1)Nc1cncc2ncccc12

>  <Residue Name>
S29

$$$$
SPE_0030
Actelion Java MolfileCreator 2.0

  0  0  0  0  0  0              0 V3000
M  V30 BEGIN CTAB
M  V30 COUNTS 19 21 0 0 0
M  V30 BEGIN ATOM
M  V30 1 O 0.0 0.0 0.0 0
M  V30 2 C -0.0239 1.5325 0.0 0
M  V30 3 N 1.2571 2.2988 0.0 0
M  V30 4 N -1.3529 2.2988 0.0 0
M  V30 5 C 2.5382 1.5684 0.0 0
M  V30 6 C -2.6819 1.5684 0.0 0
M  V30 7 C 3.8193 2.3347 0.0 0
M  V30 8 C 2.5143 0.0838 0.0 0
M  V30 9 C -4.0109 2.3347 0.0 0
M  V30 10 C -2.7058 0.0838 0.0 0
M  V30 11 C 5.1004 1.5924 0.0 0
M  V30 12 C 4.1186 3.8074 0.0 0
M  V30 13 N 3.7954 -0.6465 0.0 0
M  V30 14 C -5.3399 1.6043 0.0 0
M  V30 15 C -4.0348 -0.6465 0.0 0
M  V30 16 N 6.2019 2.6101 0.0 0
M  V30 17 C 5.0765 0.1197 0.0 0
M  V30 18 C 5.5913 3.975 0.0 0
M  V30 19 C -5.3638 0.1197 0.0 0
M  V30 END ATOM
M  V30 BEGIN BOND
M  V30 1 2 1 2
M  V30 2 1 2 3
M  V30 3 1 2 4
M  V30 4 1 3 5
M  V30 5 1 4 6
M  V30 6 2 5 7
M  V30 7 1 5 8
M  V30 8 2 6 9
M  V30 9 1 6 10
M  V30 10 1 7 11
M  V30 11 1 7 12
M  V30 12 2 8 13
M  V30 13 1 9 14
M  V30 14 2 10 15
M  V30 15 1 11 16
M  V30 16 2 11 17
M  V30 17 2 12 18
M  V30 18 2 14 19
M  V30 19 1 13 17
M  V30 20 1 15 19
M  V30 21 1 16 18
M  V30 END BOND
M  V30 END CTAB
M  END
>  <Name>
SPE_0030

>  <Name_tmp>
x0434_06

>  <Smiles>
O=C(Nc1ccccc1)Nc1c(cc[nH]2)c2cnc1

>  <Residue Name>
S30

$$$$
SPE_0031
Actelion Java MolfileCreator 2.0

  0  0  0  0  0  0              0 V3000
M  V30 BEGIN CTAB
M  V30 COUNTS 19 21 0 0 0
M  V30 BEGIN ATOM
M  V30 1 O 0.0 0.0 0.0 0
M  V30 2 C -0.0239 1.5325 0.0 0
M  V30 3 N 1.2571 2.2988 0.0 0
M  V30 4 N -1.3529 2.2988 0.0 0
M  V30 5 C 2.5382 1.5684 0.0 0
M  V30 6 C -2.6819 1.5684 0.0 0
M  V30 7 C 3.8193 2.3347 0.0 0
M  V30 8 C 2.5143 0.0838 0.0 0
M  V30 9 C -4.0109 2.3347 0.0 0
M  V30 10 C -2.7058 0.0838 0.0 0
M  V30 11 N 5.1004 1.5924 0.0 0
M  V30 12 C 4.1186 3.8074 0.0 0
M  V30 13 N 3.7954 -0.6465 0.0 0
M  V30 14 C -5.3399 1.6043 0.0 0
M  V30 15 C -4.0348 -0.6465 0.0 0
M  V30 16 N 6.2019 2.6101 0.0 0
M  V30 17 C 5.0765 0.1197 0.0 0
M  V30 18 C 5.5913 3.975 0.0 0
M  V30 19 C -5.3638 0.1197 0.0 0
M  V30 END ATOM
M  V30 BEGIN BOND
M  V30 1 2 1 2
M  V30 2 1 2 3
M  V30 3 1 2 4
M  V30 4 1 3 5
M  V30 5 1 4 6
M  V30 6 1 5 7
M  V30 7 2 5 8
M  V30 8 2 6 9
M  V30 9 1 6 10
M  V30 10 1 7 11
M  V30 11 2 7 12
M  V30 12 1 8 13
M  V30 13 1 9 14
M  V30 14 2 10 15
M  V30 15 1 11 16
M  V30 16 1 11 17
M  V30 17 1 12 18
M  V30 18 2 14 19
M  V30 19 2 13 17
M  V30 20 1 15 19
M  V30 21 2 16 18
M  V30 END BOND
M  V30 END CTAB
M  END
>  <Name>
SPE_0031

>  <Name_tmp>
x0434_07

>  <Smiles>
O=C(Nc1ccccc1)Nc1cncn2nccc12

>  <Residue Name>
S31

$$$$
SPE_0032
Actelion Java MolfileCreator 2.0

  0  0  0  0  0  0              0 V3000
M  V30 BEGIN CTAB
M  V30 COUNTS 19 21 0 0 0
M  V30 BEGIN ATOM
M  V30 1 O 0.0 0.0 0.0 0
M  V30 2 C -0.0239 1.5325 0.0 0
M  V30 3 N 1.2571 2.2988 0.0 0
M  V30 4 N -1.3529 2.2988 0.0 0
M  V30 5 C 2.5382 1.5684 0.0 0
M  V30 6 C -2.6819 1.5684 0.0 0
M  V30 7 N 3.8193 2.3347 0.0 0
M  V30 8 C 2.5143 0.0838 0.0 0
M  V30 9 C -4.0109 2.3347 0.0 0
M  V30 10 C -2.7058 0.0838 0.0 0
M  V30 11 C 5.1004 1.5924 0.0 0
M  V30 12 C 4.1186 3.8074 0.0 0
M  V30 13 N 3.7954 -0.6465 0.0 0
M  V30 14 C -5.3399 1.6043 0.0 0
M  V30 15 C -4.0348 -0.6465 0.0 0
M  V30 16 N 6.2019 2.6101 0.0 0
M  V30 17 C 5.0765 0.1197 0.0 0
M  V30 18 C 5.5913 3.975 0.0 0
M  V30 19 C -5.3638 0.1197 0.0 0
M  V30 END ATOM
M  V30 BEGIN BOND
M  V30 1 2 1 2
M  V30 2 1 2 3
M  V30 3 1 2 4
M  V30 4 1 3 5
M  V30 5 1 4 6
M  V30 6 1 5 7
M  V30 7 2 5 8
M  V30 8 2 6 9
M  V30 9 1 6 10
M  V30 10 1 7 11
M  V30 11 1 7 12
M  V30 12 1 8 13
M  V30 13 1 9 14
M  V30 14 2 10 15
M  V30 15 2 11 16
M  V30 16 1 11 17
M  V30 17 2 12 18
M  V30 18 2 14 19
M  V30 19 2 13 17
M  V30 20 1 15 19
M  V30 21 1 16 18
M  V30 END BOND
M  V30 END CTAB
M  END
>  <Name>
SPE_0032

>  <Name_tmp>
x0434_08

>  <Smiles>
O=C(Nc1ccccc1)Nc1cncc2nccn12

>  <Residue Name>
S32

$$$$
SPE_0033
Actelion Java MolfileCreator 2.0

  0  0  0  0  0  0              0 V3000
M  V30 BEGIN CTAB
M  V30 COUNTS 19 21 0 0 0
M  V30 BEGIN ATOM
M  V30 1 O 0.0 0.0 0.0 0
M  V30 2 C -0.0239 1.5325 0.0 0
M  V30 3 N 1.2571 2.2988 0.0 0
M  V30 4 N -1.3529 2.2988 0.0 0
M  V30 5 C 2.5382 1.5684 0.0 0
M  V30 6 C -2.6819 1.5684 0.0 0
M  V30 7 C 3.8193 2.3347 0.0 0
M  V30 8 C 2.5143 0.0838 0.0 0
M  V30 9 C -4.0109 2.3347 0.0 0
M  V30 10 C -2.7058 0.0838 0.0 0
M  V30 11 N 4.1186 3.8074 0.0 0
M  V30 12 C 5.1004 1.5924 0.0 0
M  V30 13 N 3.7954 -0.6465 0.0 0
M  V30 14 C -5.3399 1.6043 0.0 0
M  V30 15 C -4.0348 -0.6465 0.0 0
M  V30 16 C 5.5913 3.975 0.0 0
M  V30 17 N 6.2019 2.6101 0.0 0
M  V30 18 C 5.0765 0.1197 0.0 0
M  V30 19 C -5.3638 0.1197 0.0 0
M  V30 END ATOM
M  V30 BEGIN BOND
M  V30 1 2 1 2
M  V30 2 1 2 3
M  V30 3 1 2 4
M  V30 4 1 3 5
M  V30 5 1 4 6
M  V30 6 2 5 7
M  V30 7 1 5 8
M  V30 8 2 6 9
M  V30 9 1 6 10
M  V30 10 1 7 11
M  V30 11 1 7 12
M  V30 12 2 8 13
M  V30 13 1 9 14
M  V30 14 2 10 15
M  V30 15 2 11 16
M  V30 16 1 12 17
M  V30 17 2 12 18
M  V30 18 2 14 19
M  V30 19 1 13 18
M  V30 20 1 15 19
M  V30 21 1 16 17
M  V30 END BOND
M  V30 END CTAB
M  END
>  <Name>
SPE_0033

>  <Name_tmp>
x0434_09

>  <Smiles>
O=C(Nc1ccccc1)Nc1c2nc[nH]c2cnc1

>  <Residue Name>
S33

$$$$
SPE_0034
Actelion Java MolfileCreator 2.0

  0  0  0  0  0  0              0 V3000
M  V30 BEGIN CTAB
M  V30 COUNTS 19 21 0 0 0
M  V30 BEGIN ATOM
M  V30 1 O 0.0 0.0 0.0 0
M  V30 2 C -0.0239 1.5325 0.0 0
M  V30 3 N 1.2571 2.2988 0.0 0
M  V30 4 N -1.3529 2.2988 0.0 0
M  V30 5 C 2.5382 1.5684 0.0 0
M  V30 6 C -2.6819 1.5684 0.0 0
M  V30 7 C 3.8193 2.3347 0.0 0
M  V30 8 C 2.5143 0.0838 0.0 0
M  V30 9 C -4.0109 2.3347 0.0 0
M  V30 10 C -2.7058 0.0838 0.0 0
M  V30 11 C 5.1004 1.5924 0.0 0
M  V30 12 C 4.1186 3.8074 0.0 0
M  V30 13 N 3.7954 -0.6465 0.0 0
M  V30 14 C -5.3399 1.6043 0.0 0
M  V30 15 C -4.0348 -0.6465 0.0 0
M  V30 16 N 6.2019 2.6101 0.0 0
M  V30 17 C 5.0765 0.1197 0.0 0
M  V30 18 N 5.5913 3.975 0.0 0
M  V30 19 C -5.3638 0.1197 0.0 0
M  V30 END ATOM
M  V30 BEGIN BOND
M  V30 1 2 1 2
M  V30 2 1 2 3
M  V30 3 1 2 4
M  V30 4 1 3 5
M  V30 5 1 4 6
M  V30 6 2 5 7
M  V30 7 1 5 8
M  V30 8 2 6 9
M  V30 9 1 6 10
M  V30 10 1 7 11
M  V30 11 1 7 12
M  V30 12 2 8 13
M  V30 13 1 9 14
M  V30 14 2 10 15
M  V30 15 1 11 16
M  V30 16 2 11 17
M  V30 17 2 12 18
M  V30 18 2 14 19
M  V30 19 1 13 17
M  V30 20 1 15 19
M  V30 21 1 16 18
M  V30 END BOND
M  V30 END CTAB
M  END
>  <Name>
SPE_0034

>  <Name_tmp>
x0434_10

>  <Smiles>
O=C(Nc1ccccc1)Nc1c(cn[nH]2)c2cnc1

>  <Residue Name>
S34

$$$$
SPE_0035
Actelion Java MolfileCreator 2.0

  0  0  0  0  0  0              0 V3000
M  V30 BEGIN CTAB
M  V30 COUNTS 20 22 0 0 0
M  V30 BEGIN ATOM
M  V30 1 O 0.0 0.0 0.0 0
M  V30 2 C -0.0362 1.5474 0.0 0
M  V30 3 N 1.233 2.3211 0.0 0
M  V30 4 N -1.3781 2.3211 0.0 0
M  V30 5 C 2.5024 1.5957 0.0 0
M  V30 6 C -2.72 1.5957 0.0 0
M  V30 7 C 3.7718 2.3694 0.0 0
M  V30 8 C 2.4661 0.1208 0.0 0
M  V30 9 C -4.0619 2.3694 0.0 0
M  V30 10 C -2.7563 0.1208 0.0 0
M  V30 11 N 3.7476 3.8927 0.0 0
M  V30 12 C 5.0411 1.632 0.0 0
M  V30 13 N 3.7355 -0.6044 0.0 0
M  V30 14 C -5.4038 1.6441 0.0 0
M  V30 15 C -4.0982 -0.6044 0.0 0
M  V30 16 C 5.017 4.6664 0.0 0
M  V30 17 N 6.3105 2.4057 0.0 0
M  V30 18 C 5.0049 0.1692 0.0 0
M  V30 19 C -5.4401 0.1692 0.0 0
M  V30 20 C 6.2863 3.9289 0.0 0
M  V30 END ATOM
M  V30 BEGIN BOND
M  V30 1 2 1 2
M  V30 2 1 2 3
M  V30 3 1 2 4
M  V30 4 1 3 5
M  V30 5 1 4 6
M  V30 6 1 5 7
M  V30 7 2 5 8
M  V30 8 2 6 9
M  V30 9 1 6 10
M  V30 10 2 7 11
M  V30 11 1 7 12
M  V30 12 1 8 13
M  V30 13 1 9 14
M  V30 14 2 10 15
M  V30 15 1 11 16
M  V30 16 2 12 17
M  V30 17 1 12 18
M  V30 18 2 14 19
M  V30 19 2 16 20
M  V30 20 2 13 18
M  V30 21 1 15 19
M  V30 22 1 17 20
M  V30 END BOND
M  V30 END CTAB
M  END
>  <Name>
SPE_0035

>  <Name_tmp>
x0434_11

>  <Smiles>
O=C(Nc1ccccc1)NC1=CNC=C2N=CC=CN12

>  <Residue Name>
S35

$$$$
SPE_0036
Actelion Java MolfileCreator 2.0

  0  0  0  0  0  0              0 V3000
M  V30 BEGIN CTAB
M  V30 COUNTS 16 17 0 0 0
M  V30 BEGIN ATOM
M  V30 1 O 0.0 0.0 0.0 0
M  V30 2 C -0.0118 1.5162 0.0 0
M  V30 3 N 1.2793 2.2743 0.0 0
M  V30 4 C -1.3266 2.2743 0.0 0
M  V30 5 C 2.5704 1.5399 0.0 0
M  V30 6 C -2.6415 1.5399 0.0 0
M  V30 7 C 2.5586 0.0473 0.0 0
M  V30 8 C 3.8616 2.298 0.0 0
M  V30 9 C -3.9563 2.298 0.0 0
M  V30 10 C -2.6533 0.0473 0.0 0
M  V30 11 N 3.8497 -0.687 0.0 0
M  V30 12 C 5.1527 1.5517 0.0 0
M  V30 13 C -5.2712 1.5635 0.0 0
M  V30 14 C -3.9682 -0.687 0.0 0
M  V30 15 C 5.1409 0.071 0.0 0
M  V30 16 C -5.283 0.071 0.0 0
M  V30 END ATOM
M  V30 BEGIN BOND
M  V30 1 2 1 2
M  V30 2 1 2 3
M  V30 3 1 2 4
M  V30 4 1 3 5
M  V30 5 1 4 6
M  V30 6 2 5 7
M  V30 7 1 5 8
M  V30 8 1 6 9
M  V30 9 1 6 10
M  V30 10 1 7 11
M  V30 11 2 8 12
M  V30 12 1 9 13
M  V30 13 1 10 14
M  V30 14 2 11 15
M  V30 15 1 13 16
M  V30 16 1 12 15
M  V30 17 1 14 16
M  V30 END BOND
M  V30 END CTAB
M  END
>  <Name>
SPE_0036

>  <Name_tmp>
x0678

>  <Smiles>
O=C(CC1CCCCC1)Nc1cnccc1

>  <Residue Name>
S36

$$$$
SPE_0037
Actelion Java MolfileCreator 2.0

  0  0  0  0  0  0              0 V3000
M  V30 BEGIN CTAB
M  V30 COUNTS 17 18 0 0 0
M  V30 BEGIN ATOM
M  V30 1 O 0.0 0.0 0.0 0
M  V30 2 C -0.0239 1.5315 0.0 0
M  V30 3 N 1.2563 2.2973 0.0 0
M  V30 4 C -1.352 2.2973 0.0 0
M  V30 5 C 2.5366 1.5674 0.0 0
M  V30 6 C -2.6802 1.5674 0.0 0
M  V30 7 C 2.5127 0.0837 0.0 0
M  V30 8 C 3.8169 2.3332 0.0 0
M  V30 9 C -4.0084 2.3332 0.0 0
M  V30 10 C -2.7041 0.0837 0.0 0
M  V30 11 N 3.793 -0.6461 0.0 0
M  V30 12 C 5.0972 1.5913 0.0 0
M  V30 13 C -5.3365 1.6033 0.0 0
M  V30 14 C -4.0323 -0.6461 0.0 0
M  V30 15 C 5.0733 0.1196 0.0 0
M  V30 16 N 6.3895 2.3452 0.0 0
M  V30 17 C -5.3604 0.1196 0.0 0
M  V30 END ATOM
M  V30 BEGIN BOND
M  V30 1 2 1 2
M  V30 2 1 2 3
M  V30 3 1 2 4
M  V30 4 1 3 5
M  V30 5 1 4 6
M  V30 6 2 5 7
M  V30 7 1 5 8
M  V30 8 1 6 9
M  V30 9 1 6 10
M  V30 10 1 7 11
M  V30 11 2 8 12
M  V30 12 1 9 13
M  V30 13 1 10 14
M  V30 14 2 11 15
M  V30 15 1 12 16
M  V30 16 1 13 17
M  V30 17 1 12 15
M  V30 18 1 14 17
M  V30 END BOND
M  V30 END CTAB
M  END
>  <Name>
SPE_0037

>  <Name_tmp>
x0678_01

>  <Smiles>
Nc1cc(NC(CC2CCCCC2)=O)cnc1

>  <Residue Name>
S37

$$$$
SPE_0038
Actelion Java MolfileCreator 2.0

  0  0  0  0  0  0              0 V3000
M  V30 BEGIN CTAB
M  V30 COUNTS 18 19 0 0 0
M  V30 BEGIN ATOM
M  V30 1 O 0.0 0.0 0.0 0
M  V30 2 C -0.0239 1.5321 0.0 0
M  V30 3 N 1.2568 2.2981 0.0 0
M  V30 4 C -1.3525 2.2981 0.0 0
M  V30 5 C 2.5375 1.568 0.0 0
M  V30 6 C -2.6811 1.568 0.0 0
M  V30 7 C 2.5136 0.0837 0.0 0
M  V30 8 C 3.8182 2.334 0.0 0
M  V30 9 C -4.0098 2.334 0.0 0
M  V30 10 C -2.7051 0.0837 0.0 0
M  V30 11 N 3.7943 -0.6463 0.0 0
M  V30 12 C 5.099 1.5919 0.0 0
M  V30 13 C -5.3384 1.6039 0.0 0
M  V30 14 C -4.0337 -0.6463 0.0 0
M  V30 15 C 5.075 0.1196 0.0 0
M  V30 16 N 6.3917 2.346 0.0 0
M  V30 17 C -5.3623 0.1196 0.0 0
M  V30 18 C 7.6844 1.6039 0.0 0
M  V30 END ATOM
M  V30 BEGIN BOND
M  V30 1 2 1 2
M  V30 2 1 2 3
M  V30 3 1 2 4
M  V30 4 1 3 5
M  V30 5 1 4 6
M  V30 6 2 5 7
M  V30 7 1 5 8
M  V30 8 1 6 9
M  V30 9 1 6 10
M  V30 10 1 7 11
M  V30 11 2 8 12
M  V30 12 1 9 13
M  V30 13 1 10 14
M  V30 14 2 11 15
M  V30 15 1 12 16
M  V30 16 1 13 17
M  V30 17 1 16 18
M  V30 18 1 12 15
M  V30 19 1 14 17
M  V30 END BOND
M  V30 END CTAB
M  END
>  <Name>
SPE_0038

>  <Name_tmp>
x0678_02

>  <Smiles>
CNc1cc(NC(CC2CCCCC2)=O)cnc1

>  <Residue Name>
S38

$$$$
SPE_0039
Actelion Java MolfileCreator 2.0

  0  0  0  0  0  0              0 V3000
M  V30 BEGIN CTAB
M  V30 COUNTS 19 20 0 0 0
M  V30 BEGIN ATOM
M  V30 1 O 0.0 0.0 0.0 0
M  V30 2 C -0.0239 1.531 0.0 0
M  V30 3 N 1.2559 2.2966 0.0 0
M  V30 4 C -1.3516 2.2966 0.0 0
M  V30 5 C 2.5358 1.5669 0.0 0
M  V30 6 C -2.6793 1.5669 0.0 0
M  V30 7 C 2.5119 0.0837 0.0 0
M  V30 8 C 3.8157 2.3324 0.0 0
M  V30 9 C -4.0071 2.3324 0.0 0
M  V30 10 C -2.7033 0.0837 0.0 0
M  V30 11 N 3.7918 -0.6459 0.0 0
M  V30 12 C 5.0956 1.5908 0.0 0
M  V30 13 C -5.3348 1.6028 0.0 0
M  V30 14 C -4.031 -0.6459 0.0 0
M  V30 15 C 5.0716 0.1196 0.0 0
M  V30 16 N 6.3874 2.3444 0.0 0
M  V30 17 C -5.3587 0.1196 0.0 0
M  V30 18 C 7.6792 1.6028 0.0 0
M  V30 19 C 6.3754 3.8635 0.0 0
M  V30 END ATOM
M  V30 BEGIN BOND
M  V30 1 2 1 2
M  V30 2 1 2 3
M  V30 3 1 2 4
M  V30 4 1 3 5
M  V30 5 1 4 6
M  V30 6 2 5 7
M  V30 7 1 5 8
M  V30 8 1 6 9
M  V30 9 1 6 10
M  V30 10 1 7 11
M  V30 11 2 8 12
M  V30 12 1 9 13
M  V30 13 1 10 14
M  V30 14 2 11 15
M  V30 15 1 12 16
M  V30 16 1 13 17
M  V30 17 1 16 18
M  V30 18 1 16 19
M  V30 19 1 12 15
M  V30 20 1 14 17
M  V30 END BOND
M  V30 END CTAB
M  END
>  <Name>
SPE_0039

>  <Name_tmp>
x0678_03

>  <Smiles>
CN(C)c1cc(NC(CC2CCCCC2)=O)cnc1

>  <Residue Name>
S39

$$$$
SPE_0040
Actelion Java MolfileCreator 2.0

  0  0  0  0  0  0              0 V3000
M  V30 BEGIN CTAB
M  V30 COUNTS 20 22 0 0 0
M  V30 BEGIN ATOM
M  V30 1 O 0.0 0.0 0.0 0
M  V30 2 C -0.0362 1.5474 0.0 0
M  V30 3 N 1.233 2.3211 0.0 0
M  V30 4 C -1.3781 2.3211 0.0 0
M  V30 5 C 2.5024 1.5957 0.0 0
M  V30 6 C -2.72 1.5957 0.0 0
M  V30 7 C 3.7718 2.3694 0.0 0
M  V30 8 C 2.4661 0.1208 0.0 0
M  V30 9 C -4.0619 2.3694 0.0 0
M  V30 10 C -2.7563 0.1208 0.0 0
M  V30 11 C 5.0411 1.632 0.0 0
M  V30 12 C 3.7476 3.8927 0.0 0
M  V30 13 N 3.7355 -0.6044 0.0 0
M  V30 14 C -5.4038 1.6441 0.0 0
M  V30 15 C -4.0982 -0.6044 0.0 0
M  V30 16 N 6.3105 2.4057 0.0 0
M  V30 17 C 5.0049 0.1692 0.0 0
M  V30 18 N 5.017 4.6664 0.0 0
M  V30 19 C -5.4401 0.1692 0.0 0
M  V30 20 C 6.2863 3.9289 0.0 0
M  V30 END ATOM
M  V30 BEGIN BOND
M  V30 1 2 1 2
M  V30 2 1 2 3
M  V30 3 1 2 4
M  V30 4 1 3 5
M  V30 5 1 4 6
M  V30 6 1 5 7
M  V30 7 2 5 8
M  V30 8 1 6 9
M  V30 9 1 6 10
M  V30 10 1 7 11
M  V30 11 2 7 12
M  V30 12 1 8 13
M  V30 13 1 9 14
M  V30 14 1 10 15
M  V30 15 2 11 16
M  V30 16 1 11 17
M  V30 17 1 12 18
M  V30 18 1 14 19
M  V30 19 1 16 20
M  V30 20 2 13 17
M  V30 21 1 15 19
M  V30 22 2 18 20
M  V30 END BOND
M  V30 END CTAB
M  END
>  <Name>
SPE_0040

>  <Name_tmp>
x0678_04

>  <Smiles>
O=C(CC1CCCCC1)NC1=CN=CN2NC=CC=C12

>  <Residue Name>
S40

$$$$
SPE_0041
Actelion Java MolfileCreator 2.0

  0  0  0  0  0  0              0 V3000
M  V30 BEGIN CTAB
M  V30 COUNTS 20 22 0 0 0
M  V30 BEGIN ATOM
M  V30 1 O 0.0 0.0 0.0 0
M  V30 2 C -0.0239 1.5329 0.0 0
M  V30 3 N 1.2574 2.2994 0.0 0
M  V30 4 C -1.3533 2.2994 0.0 0
M  V30 5 C 2.5389 1.5688 0.0 0
M  V30 6 C -2.6826 1.5688 0.0 0
M  V30 7 C 3.8203 2.3353 0.0 0
M  V30 8 C 2.5149 0.0838 0.0 0
M  V30 9 C -4.0119 2.3353 0.0 0
M  V30 10 C -2.7066 0.0838 0.0 0
M  V30 11 C 5.1018 1.5928 0.0 0
M  V30 12 C 3.8084 3.8443 0.0 0
M  V30 13 N 3.7964 -0.6467 0.0 0
M  V30 14 C -5.3413 1.6047 0.0 0
M  V30 15 C -4.0359 -0.6467 0.0 0
M  V30 16 N 6.3832 2.3473 0.0 0
M  V30 17 C 5.0778 0.1197 0.0 0
M  V30 18 C 5.0898 4.5988 0.0 0
M  V30 19 C -5.3652 0.1197 0.0 0
M  V30 20 C 6.3712 3.8563 0.0 0
M  V30 END ATOM
M  V30 BEGIN BOND
M  V30 1 2 1 2
M  V30 2 1 2 3
M  V30 3 1 2 4
M  V30 4 1 3 5
M  V30 5 1 4 6
M  V30 6 1 5 7
M  V30 7 2 5 8
M  V30 8 1 6 9
M  V30 9 1 6 10
M  V30 10 1 7 11
M  V30 11 2 7 12
M  V30 12 1 8 13
M  V30 13 1 9 14
M  V30 14 1 10 15
M  V30 15 2 11 16
M  V30 16 1 11 17
M  V30 17 1 12 18
M  V30 18 1 14 19
M  V30 19 1 16 20
M  V30 20 2 13 17
M  V30 21 1 15 19
M  V30 22 2 18 20
M  V30 END BOND
M  V30 END CTAB
M  END
>  <Name>
SPE_0041

>  <Name_tmp>
x0678_05

>  <Smiles>
O=C(CC1CCCCC1)Nc1cncc2ncccc12

>  <Residue Name>
S41

$$$$
SPE_0042
Actelion Java MolfileCreator 2.0

  0  0  0  0  0  0              0 V3000
M  V30 BEGIN CTAB
M  V30 COUNTS 19 21 0 0 0
M  V30 BEGIN ATOM
M  V30 1 O 0.0 0.0 0.0 0
M  V30 2 C -0.0239 1.5325 0.0 0
M  V30 3 N 1.2571 2.2988 0.0 0
M  V30 4 C -1.3529 2.2988 0.0 0
M  V30 5 C 2.5382 1.5684 0.0 0
M  V30 6 C -2.6819 1.5684 0.0 0
M  V30 7 C 3.8193 2.3347 0.0 0
M  V30 8 C 2.5143 0.0838 0.0 0
M  V30 9 C -4.0109 2.3347 0.0 0
M  V30 10 C -2.7058 0.0838 0.0 0
M  V30 11 C 5.1004 1.5924 0.0 0
M  V30 12 C 4.1186 3.8074 0.0 0
M  V30 13 N 3.7954 -0.6465 0.0 0
M  V30 14 C -5.3399 1.6043 0.0 0
M  V30 15 C -4.0348 -0.6465 0.0 0
M  V30 16 N 6.2019 2.6101 0.0 0
M  V30 17 C 5.0765 0.1197 0.0 0
M  V30 18 C 5.5913 3.975 0.0 0
M  V30 19 C -5.3638 0.1197 0.0 0
M  V30 END ATOM
M  V30 BEGIN BOND
M  V30 1 2 1 2
M  V30 2 1 2 3
M  V30 3 1 2 4
M  V30 4 1 3 5
M  V30 5 1 4 6
M  V30 6 2 5 7
M  V30 7 1 5 8
M  V30 8 1 6 9
M  V30 9 1 6 10
M  V30 10 1 7 11
M  V30 11 1 7 12
M  V30 12 2 8 13
M  V30 13 1 9 14
M  V30 14 1 10 15
M  V30 15 1 11 16
M  V30 16 2 11 17
M  V30 17 2 12 18
M  V30 18 1 14 19
M  V30 19 1 13 17
M  V30 20 1 15 19
M  V30 21 1 16 18
M  V30 END BOND
M  V30 END CTAB
M  END
>  <Name>
SPE_0042

>  <Name_tmp>
x0678_06

>  <Smiles>
O=C(CC1CCCCC1)Nc1c(cc[nH]2)c2cnc1

>  <Residue Name>
S42

$$$$
SPE_0043
Actelion Java MolfileCreator 2.0

  0  0  0  0  0  0              0 V3000
M  V30 BEGIN CTAB
M  V30 COUNTS 19 21 0 0 0
M  V30 BEGIN ATOM
M  V30 1 O 0.0 0.0 0.0 0
M  V30 2 C -0.0239 1.5325 0.0 0
M  V30 3 N 1.2571 2.2988 0.0 0
M  V30 4 C -1.3529 2.2988 0.0 0
M  V30 5 C 2.5382 1.5684 0.0 0
M  V30 6 C -2.6819 1.5684 0.0 0
M  V30 7 C 3.8193 2.3347 0.0 0
M  V30 8 C 2.5143 0.0838 0.0 0
M  V30 9 C -4.0109 2.3347 0.0 0
M  V30 10 C -2.7058 0.0838 0.0 0
M  V30 11 N 5.1004 1.5924 0.0 0
M  V30 12 C 4.1186 3.8074 0.0 0
M  V30 13 N 3.7954 -0.6465 0.0 0
M  V30 14 C -5.3399 1.6043 0.0 0
M  V30 15 C -4.0348 -0.6465 0.0 0
M  V30 16 N 6.2019 2.6101 0.0 0
M  V30 17 C 5.0765 0.1197 0.0 0
M  V30 18 C 5.5913 3.975 0.0 0
M  V30 19 C -5.3638 0.1197 0.0 0
M  V30 END ATOM
M  V30 BEGIN BOND
M  V30 1 2 1 2
M  V30 2 1 2 3
M  V30 3 1 2 4
M  V30 4 1 3 5
M  V30 5 1 4 6
M  V30 6 1 5 7
M  V30 7 2 5 8
M  V30 8 1 6 9
M  V30 9 1 6 10
M  V30 10 1 7 11
M  V30 11 2 7 12
M  V30 12 1 8 13
M  V30 13 1 9 14
M  V30 14 1 10 15
M  V30 15 1 11 16
M  V30 16 1 11 17
M  V30 17 1 12 18
M  V30 18 1 14 19
M  V30 19 2 13 17
M  V30 20 1 15 19
M  V30 21 2 16 18
M  V30 END BOND
M  V30 END CTAB
M  END
>  <Name>
SPE_0043

>  <Name_tmp>
x0678_07

>  <Smiles>
O=C(CC1CCCCC1)Nc1cncn2nccc12

>  <Residue Name>
S43

$$$$
SPE_0044
Actelion Java MolfileCreator 2.0

  0  0  0  0  0  0              0 V3000
M  V30 BEGIN CTAB
M  V30 COUNTS 19 21 0 0 0
M  V30 BEGIN ATOM
M  V30 1 O 0.0 0.0 0.0 0
M  V30 2 C -0.0239 1.5325 0.0 0
M  V30 3 N 1.2571 2.2988 0.0 0
M  V30 4 C -1.3529 2.2988 0.0 0
M  V30 5 C 2.5382 1.5684 0.0 0
M  V30 6 C -2.6819 1.5684 0.0 0
M  V30 7 N 3.8193 2.3347 0.0 0
M  V30 8 C 2.5143 0.0838 0.0 0
M  V30 9 C -4.0109 2.3347 0.0 0
M  V30 10 C -2.7058 0.0838 0.0 0
M  V30 11 C 5.1004 1.5924 0.0 0
M  V30 12 C 4.1186 3.8074 0.0 0
M  V30 13 N 3.7954 -0.6465 0.0 0
M  V30 14 C -5.3399 1.6043 0.0 0
M  V30 15 C -4.0348 -0.6465 0.0 0
M  V30 16 N 6.2019 2.6101 0.0 0
M  V30 17 C 5.0765 0.1197 0.0 0
M  V30 18 C 5.5913 3.975 0.0 0
M  V30 19 C -5.3638 0.1197 0.0 0
M  V30 END ATOM
M  V30 BEGIN BOND
M  V30 1 2 1 2
M  V30 2 1 2 3
M  V30 3 1 2 4
M  V30 4 1 3 5
M  V30 5 1 4 6
M  V30 6 1 5 7
M  V30 7 2 5 8
M  V30 8 1 6 9
M  V30 9 1 6 10
M  V30 10 1 7 11
M  V30 11 1 7 12
M  V30 12 1 8 13
M  V30 13 1 9 14
M  V30 14 1 10 15
M  V30 15 2 11 16
M  V30 16 1 11 17
M  V30 17 2 12 18
M  V30 18 1 14 19
M  V30 19 2 13 17
M  V30 20 1 15 19
M  V30 21 1 16 18
M  V30 END BOND
M  V30 END CTAB
M  END
>  <Name>
SPE_0044

>  <Name_tmp>
x0678_08

>  <Smiles>
O=C(CC1CCCCC1)Nc1cncc2nccn12

>  <Residue Name>
S44

$$$$
SPE_0045
Actelion Java MolfileCreator 2.0

  0  0  0  0  0  0              0 V3000
M  V30 BEGIN CTAB
M  V30 COUNTS 19 21 0 0 0
M  V30 BEGIN ATOM
M  V30 1 O 0.0 0.0 0.0 0
M  V30 2 C -0.0239 1.5325 0.0 0
M  V30 3 N 1.2571 2.2988 0.0 0
M  V30 4 C -1.3529 2.2988 0.0 0
M  V30 5 C 2.5382 1.5684 0.0 0
M  V30 6 C -2.6819 1.5684 0.0 0
M  V30 7 C 3.8193 2.3347 0.0 0
M  V30 8 C 2.5143 0.0838 0.0 0
M  V30 9 C -4.0109 2.3347 0.0 0
M  V30 10 C -2.7058 0.0838 0.0 0
M  V30 11 N 4.1186 3.8074 0.0 0
M  V30 12 C 5.1004 1.5924 0.0 0
M  V30 13 N 3.7954 -0.6465 0.0 0
M  V30 14 C -5.3399 1.6043 0.0 0
M  V30 15 C -4.0348 -0.6465 0.0 0
M  V30 16 C 5.5913 3.975 0.0 0
M  V30 17 N 6.2019 2.6101 0.0 0
M  V30 18 C 5.0765 0.1197 0.0 0
M  V30 19 C -5.3638 0.1197 0.0 0
M  V30 END ATOM
M  V30 BEGIN BOND
M  V30 1 2 1 2
M  V30 2 1 2 3
M  V30 3 1 2 4
M  V30 4 1 3 5
M  V30 5 1 4 6
M  V30 6 2 5 7
M  V30 7 1 5 8
M  V30 8 1 6 9
M  V30 9 1 6 10
M  V30 10 1 7 11
M  V30 11 1 7 12
M  V30 12 2 8 13
M  V30 13 1 9 14
M  V30 14 1 10 15
M  V30 15 2 11 16
M  V30 16 1 12 17
M  V30 17 2 12 18
M  V30 18 1 14 19
M  V30 19 1 13 18
M  V30 20 1 15 19
M  V30 21 1 16 17
M  V30 END BOND
M  V30 END CTAB
M  END
>  <Name>
SPE_0045

>  <Name_tmp>
x0678_09

>  <Smiles>
O=C(CC1CCCCC1)Nc1c2nc[nH]c2cnc1

>  <Residue Name>
S45

$$$$
SPE_0046
Actelion Java MolfileCreator 2.0

  0  0  0  0  0  0              0 V3000
M  V30 BEGIN CTAB
M  V30 COUNTS 19 21 0 0 0
M  V30 BEGIN ATOM
M  V30 1 O 0.0 0.0 0.0 0
M  V30 2 C -0.0239 1.5325 0.0 0
M  V30 3 N 1.2571 2.2988 0.0 0
M  V30 4 C -1.3529 2.2988 0.0 0
M  V30 5 C 2.5382 1.5684 0.0 0
M  V30 6 C -2.6819 1.5684 0.0 0
M  V30 7 C 3.8193 2.3347 0.0 0
M  V30 8 C 2.5143 0.0838 0.0 0
M  V30 9 C -4.0109 2.3347 0.0 0
M  V30 10 C -2.7058 0.0838 0.0 0
M  V30 11 C 5.1004 1.5924 0.0 0
M  V30 12 C 4.1186 3.8074 0.0 0
M  V30 13 N 3.7954 -0.6465 0.0 0
M  V30 14 C -5.3399 1.6043 0.0 0
M  V30 15 C -4.0348 -0.6465 0.0 0
M  V30 16 N 6.2019 2.6101 0.0 0
M  V30 17 C 5.0765 0.1197 0.0 0
M  V30 18 N 5.5913 3.975 0.0 0
M  V30 19 C -5.3638 0.1197 0.0 0
M  V30 END ATOM
M  V30 BEGIN BOND
M  V30 1 2 1 2
M  V30 2 1 2 3
M  V30 3 1 2 4
M  V30 4 1 3 5
M  V30 5 1 4 6
M  V30 6 2 5 7
M  V30 7 1 5 8
M  V30 8 1 6 9
M  V30 9 1 6 10
M  V30 10 1 7 11
M  V30 11 1 7 12
M  V30 12 2 8 13
M  V30 13 1 9 14
M  V30 14 1 10 15
M  V30 15 1 11 16
M  V30 16 2 11 17
M  V30 17 2 12 18
M  V30 18 1 14 19
M  V30 19 1 13 17
M  V30 20 1 15 19
M  V30 21 1 16 18
M  V30 END BOND
M  V30 END CTAB
M  END
>  <Name>
SPE_0046

>  <Name_tmp>
x0678_10

>  <Smiles>
O=C(CC1CCCCC1)Nc1c(cn[nH]2)c2cnc1

>  <Residue Name>
S46

$$$$
SPE_0047
Actelion Java MolfileCreator 2.0

  0  0  0  0  0  0              0 V3000
M  V30 BEGIN CTAB
M  V30 COUNTS 20 22 0 0 0
M  V30 BEGIN ATOM
M  V30 1 O 0.0 0.0 0.0 0
M  V30 2 C -0.0362 1.5474 0.0 0
M  V30 3 N 1.233 2.3211 0.0 0
M  V30 4 C -1.3781 2.3211 0.0 0
M  V30 5 C 2.5024 1.5957 0.0 0
M  V30 6 C -2.72 1.5957 0.0 0
M  V30 7 C 3.7718 2.3694 0.0 0
M  V30 8 C 2.4661 0.1208 0.0 0
M  V30 9 C -4.0619 2.3694 0.0 0
M  V30 10 C -2.7563 0.1208 0.0 0
M  V30 11 N 3.7476 3.8927 0.0 0
M  V30 12 C 5.0411 1.632 0.0 0
M  V30 13 N 3.7355 -0.6044 0.0 0
M  V30 14 C -5.4038 1.6441 0.0 0
M  V30 15 C -4.0982 -0.6044 0.0 0
M  V30 16 C 5.017 4.6664 0.0 0
M  V30 17 N 6.3105 2.4057 0.0 0
M  V30 18 C 5.0049 0.1692 0.0 0
M  V30 19 C -5.4401 0.1692 0.0 0
M  V30 20 C 6.2863 3.9289 0.0 0
M  V30 END ATOM
M  V30 BEGIN BOND
M  V30 1 2 1 2
M  V30 2 1 2 3
M  V30 3 1 2 4
M  V30 4 1 3 5
M  V30 5 1 4 6
M  V30 6 1 5 7
M  V30 7 2 5 8
M  V30 8 1 6 9
M  V30 9 1 6 10
M  V30 10 2 7 11
M  V30 11 1 7 12
M  V30 12 1 8 13
M  V30 13 1 9 14
M  V30 14 1 10 15
M  V30 15 1 11 16
M  V30 16 2 12 17
M  V30 17 1 12 18
M  V30 18 1 14 19
M  V30 19 2 16 20
M  V30 20 2 13 18
M  V30 21 1 15 19
M  V30 22 1 17 20
M  V30 END BOND
M  V30 END CTAB
M  END
>  <Name>
SPE_0047

>  <Name_tmp>
x0678_11

>  <Smiles>
O=C(CC1CCCCC1)NC1=CNC=C2N=CC=CN12

>  <Residue Name>
S47

$$$$
SPE_0048
Actelion Java MolfileCreator 2.0

  0  0  0  0  0  0              0 V3000
M  V30 BEGIN CTAB
M  V30 COUNTS 17 18 0 0 0
M  V30 BEGIN ATOM
M  V30 1 F 2.598 -1.9999 0.0 0
M  V30 2 C 3.4641 -1.4999 0.0 0
M  V30 3 N 4.3301 -1.9999 0.0 0
M  V30 4 C 3.4641 -0.5 0.0 0
M  V30 5 C 5.1961 -1.4999 0.0 0
M  V30 6 N 2.598 0.0 0.0 0
M  V30 7 C 4.3301 0.0 0.0 0
M  V30 8 C 5.1961 -0.4999 0.0 0
M  V30 9 C 1.732 -0.5 0.0 0
M  V30 10 O 1.732 -1.5 0.0 0
M  V30 11 N 0.866 0.0 0.0 0
M  V30 12 C 0.0 -0.5 0.0 0
M  V30 13 C -0.866 0.0 0.0 0
M  V30 14 C 0.0 -1.4999 0.0 0
M  V30 15 C -1.732 -0.4999 0.0 0
M  V30 16 C -0.866 -1.9999 0.0 0
M  V30 17 C -1.732 -1.4999 0.0 0
M  V30 END ATOM
M  V30 BEGIN BOND
M  V30 1 1 1 2
M  V30 2 2 2 3
M  V30 3 1 2 4
M  V30 4 1 3 5
M  V30 5 1 4 6
M  V30 6 2 4 7
M  V30 7 2 5 8
M  V30 8 1 6 9
M  V30 9 2 9 10
M  V30 10 1 9 11
M  V30 11 1 11 12
M  V30 12 2 12 13
M  V30 13 1 12 14
M  V30 14 1 13 15
M  V30 15 2 14 16
M  V30 16 2 15 17
M  V30 17 1 7 8
M  V30 18 1 16 17
M  V30 END BOND
M  V30 END CTAB
M  END
>  <Smiles>
O=C(Nc1cccnc1F)Nc1ccccc1

>  <Name>
SPE_0048

>  <Name_tmp>


>  <Residue Name>
S48

$$$$
SPE_0049
Actelion Java MolfileCreator 2.0

  0  0  0  0  0  0              0 V3000
M  V30 BEGIN CTAB
M  V30 COUNTS 18 19 0 0 0
M  V30 BEGIN ATOM
M  V30 1 F 2.598 -1.9999 0.0 0
M  V30 2 C 3.4641 -1.4999 0.0 0
M  V30 3 N 4.3301 -1.9999 0.0 0
M  V30 4 C 3.4641 -0.5 0.0 0
M  V30 5 C 5.1961 -1.4999 0.0 0
M  V30 6 N 2.598 0.0 0.0 0
M  V30 7 C 4.3301 0.0 0.0 0
M  V30 8 C 5.1961 -0.4999 0.0 0
M  V30 9 C 1.732 -0.5 0.0 0
M  V30 10 N 6.0621 0.0 0.0 0
M  V30 11 O 1.732 -1.5 0.0 0
M  V30 12 N 0.866 0.0 0.0 0
M  V30 13 C 0.0 -0.5 0.0 0
M  V30 14 C -0.866 0.0 0.0 0
M  V30 15 C 0.0 -1.4999 0.0 0
M  V30 16 C -1.732 -0.4999 0.0 0
M  V30 17 C -0.866 -1.9999 0.0 0
M  V30 18 C -1.732 -1.4999 0.0 0
M  V30 END ATOM
M  V30 BEGIN BOND
M  V30 1 1 1 2
M  V30 2 2 2 3
M  V30 3 1 2 4
M  V30 4 1 3 5
M  V30 5 1 4 6
M  V30 6 2 4 7
M  V30 7 2 5 8
M  V30 8 1 6 9
M  V30 9 1 8 10
M  V30 10 2 9 11
M  V30 11 1 9 12
M  V30 12 1 12 13
M  V30 13 2 13 14
M  V30 14 1 13 15
M  V30 15 1 14 16
M  V30 16 2 15 17
M  V30 17 2 16 18
M  V30 18 1 7 8
M  V30 19 1 17 18
M  V30 END BOND
M  V30 END CTAB
M  END
>  <Smiles>
O=C(Nc1cc(N)cnc1F)Nc1ccccc1

>  <Name>
SPE_0049

>  <Name_tmp>


>  <Residue Name>
S49

$$$$
SPE_0050
Actelion Java MolfileCreator 2.0

  0  0  0  0  0  0              0 V3000
M  V30 BEGIN CTAB
M  V30 COUNTS 19 20 0 0 0
M  V30 BEGIN ATOM
M  V30 1 F 2.598 -1.9999 0.0 0
M  V30 2 C 3.4641 -1.4999 0.0 0
M  V30 3 N 4.3301 -1.9999 0.0 0
M  V30 4 C 3.4641 -0.5 0.0 0
M  V30 5 C 5.1961 -1.4999 0.0 0
M  V30 6 N 2.598 0.0 0.0 0
M  V30 7 C 4.3301 0.0 0.0 0
M  V30 8 C 5.1961 -0.4999 0.0 0
M  V30 9 C 1.732 -0.5 0.0 0
M  V30 10 N 6.0621 0.0 0.0 0
M  V30 11 O 1.732 -1.5 0.0 0
M  V30 12 N 0.866 0.0 0.0 0
M  V30 13 C 6.0621 1.0 0.0 0
M  V30 14 C 0.0 -0.5 0.0 0
M  V30 15 C -0.866 0.0 0.0 0
M  V30 16 C 0.0 -1.4999 0.0 0
M  V30 17 C -1.732 -0.4999 0.0 0
M  V30 18 C -0.866 -1.9999 0.0 0
M  V30 19 C -1.732 -1.4999 0.0 0
M  V30 END ATOM
M  V30 BEGIN BOND
M  V30 1 1 1 2
M  V30 2 2 2 3
M  V30 3 1 2 4
M  V30 4 1 3 5
M  V30 5 1 4 6
M  V30 6 2 4 7
M  V30 7 2 5 8
M  V30 8 1 6 9
M  V30 9 1 8 10
M  V30 10 2 9 11
M  V30 11 1 9 12
M  V30 12 1 10 13
M  V30 13 1 12 14
M  V30 14 2 14 15
M  V30 15 1 14 16
M  V30 16 1 15 17
M  V30 17 2 16 18
M  V30 18 2 17 19
M  V30 19 1 7 8
M  V30 20 1 18 19
M  V30 END BOND
M  V30 END CTAB
M  END
>  <Smiles>
CNc1cnc(c(c1)NC(=O)Nc1ccccc1)F

>  <Name>
SPE_0050

>  <Name_tmp>


>  <Residue Name>
S50

$$$$
SPE_0051
Actelion Java MolfileCreator 2.0

  0  0  0  0  0  0              0 V3000
M  V30 BEGIN CTAB
M  V30 COUNTS 20 21 0 0 0
M  V30 BEGIN ATOM
M  V30 1 F 2.598 -1.9999 0.0 0
M  V30 2 C 3.4641 -1.4999 0.0 0
M  V30 3 N 4.3301 -1.9999 0.0 0
M  V30 4 C 3.4641 -0.5 0.0 0
M  V30 5 C 5.1961 -1.4999 0.0 0
M  V30 6 N 2.598 0.0 0.0 0
M  V30 7 C 4.3301 0.0 0.0 0
M  V30 8 C 5.1961 -0.4999 0.0 0
M  V30 9 C 1.732 -0.5 0.0 0
M  V30 10 N 6.0621 0.0 0.0 0
M  V30 11 O 1.732 -1.5 0.0 0
M  V30 12 N 0.866 0.0 0.0 0
M  V30 13 C 6.9282 -0.4999 0.0 0
M  V30 14 C 6.0621 1.0 0.0 0
M  V30 15 C 0.0 -0.5 0.0 0
M  V30 16 C -0.866 0.0 0.0 0
M  V30 17 C 0.0 -1.4999 0.0 0
M  V30 18 C -1.732 -0.4999 0.0 0
M  V30 19 C -0.866 -1.9999 0.0 0
M  V30 20 C -1.732 -1.4999 0.0 0
M  V30 END ATOM
M  V30 BEGIN BOND
M  V30 1 1 1 2
M  V30 2 2 2 3
M  V30 3 1 2 4
M  V30 4 1 3 5
M  V30 5 1 4 6
M  V30 6 2 4 7
M  V30 7 2 5 8
M  V30 8 1 6 9
M  V30 9 1 8 10
M  V30 10 2 9 11
M  V30 11 1 9 12
M  V30 12 1 10 13
M  V30 13 1 10 14
M  V30 14 1 12 15
M  V30 15 2 15 16
M  V30 16 1 15 17
M  V30 17 1 16 18
M  V30 18 2 17 19
M  V30 19 2 18 20
M  V30 20 1 7 8
M  V30 21 1 19 20
M  V30 END BOND
M  V30 END CTAB
M  END
>  <Smiles>
O=C(Nc1cc(cnc1F)N(C)C)Nc1ccccc1

>  <Name>
SPE_0051

>  <Name_tmp>


>  <Residue Name>
S51

$$$$
SPE_0052
Actelion Java MolfileCreator 2.0

  0  0  0  0  0  0              0 V3000
M  V30 BEGIN CTAB
M  V30 COUNTS 21 23 0 0 0
M  V30 BEGIN ATOM
M  V30 1 F 2.598 -1.9999 0.0 0
M  V30 2 C 3.4641 -1.4999 0.0 0
M  V30 3 N 4.3301 -1.9999 0.0 0
M  V30 4 C 3.4641 -0.5 0.0 0
M  V30 5 C 5.1961 -1.4999 0.0 0
M  V30 6 N 2.598 0.0 0.0 0
M  V30 7 C 4.3301 0.0 0.0 0
M  V30 8 C 5.1961 -0.4999 0.0 0
M  V30 9 C 1.732 -0.5 0.0 0
M  V30 10 C 4.3301 0.9999 0.0 0
M  V30 11 N 6.0621 0.0 0.0 0
M  V30 12 O 1.732 -1.5 0.0 0
M  V30 13 N 0.866 0.0 0.0 0
M  V30 14 N 5.1961 1.5 0.0 0
M  V30 15 C 6.0621 1.0 0.0 0
M  V30 16 C 0.0 -0.5 0.0 0
M  V30 17 C -0.866 0.0 0.0 0
M  V30 18 C 0.0 -1.4999 0.0 0
M  V30 19 C -1.732 -0.4999 0.0 0
M  V30 20 C -0.866 -1.9999 0.0 0
M  V30 21 C -1.732 -1.4999 0.0 0
M  V30 END ATOM
M  V30 BEGIN BOND
M  V30 1 1 1 2
M  V30 2 1 2 3
M  V30 3 2 2 4
M  V30 4 2 3 5
M  V30 5 1 4 6
M  V30 6 1 4 7
M  V30 7 1 5 8
M  V30 8 1 6 9
M  V30 9 2 7 10
M  V30 10 2 8 11
M  V30 11 2 9 12
M  V30 12 1 9 13
M  V30 13 1 10 14
M  V30 14 1 11 15
M  V30 15 1 13 16
M  V30 16 2 16 17
M  V30 17 1 16 18
M  V30 18 1 17 19
M  V30 19 2 18 20
M  V30 20 2 19 21
M  V30 21 1 7 8
M  V30 22 2 14 15
M  V30 23 1 20 21
M  V30 END BOND
M  V30 END CTAB
M  END
>  <Smiles>
O=C(Nc1c(F)ncc2c1cncn2)Nc1ccccc1

>  <Name>
SPE_0052

>  <Name_tmp>


>  <Residue Name>
S52

$$$$
SPE_0053
Actelion Java MolfileCreator 2.0

  0  0  0  0  0  0              0 V3000
M  V30 BEGIN CTAB
M  V30 COUNTS 21 23 0 0 0
M  V30 BEGIN ATOM
M  V30 1 F 2.598 -1.9999 0.0 0
M  V30 2 C 3.4641 -1.4999 0.0 0
M  V30 3 N 4.3301 -1.9999 0.0 0
M  V30 4 C 3.4641 -0.5 0.0 0
M  V30 5 C 5.1961 -1.4999 0.0 0
M  V30 6 N 2.598 0.0 0.0 0
M  V30 7 C 4.3301 0.0 0.0 0
M  V30 8 C 5.1961 -0.4999 0.0 0
M  V30 9 C 1.732 -0.5 0.0 0
M  V30 10 C 4.3301 0.9999 0.0 0
M  V30 11 N 6.0621 0.0 0.0 0
M  V30 12 O 1.732 -1.5 0.0 0
M  V30 13 N 0.866 0.0 0.0 0
M  V30 14 C 5.1961 1.5 0.0 0
M  V30 15 C 6.0621 1.0 0.0 0
M  V30 16 C 0.0 -0.5 0.0 0
M  V30 17 C -0.866 0.0 0.0 0
M  V30 18 C 0.0 -1.4999 0.0 0
M  V30 19 C -1.732 -0.4999 0.0 0
M  V30 20 C -0.866 -1.9999 0.0 0
M  V30 21 C -1.732 -1.4999 0.0 0
M  V30 END ATOM
M  V30 BEGIN BOND
M  V30 1 1 1 2
M  V30 2 1 2 3
M  V30 3 2 2 4
M  V30 4 2 3 5
M  V30 5 1 4 6
M  V30 6 1 4 7
M  V30 7 1 5 8
M  V30 8 1 6 9
M  V30 9 2 7 10
M  V30 10 2 8 11
M  V30 11 2 9 12
M  V30 12 1 9 13
M  V30 13 1 10 14
M  V30 14 1 11 15
M  V30 15 1 13 16
M  V30 16 2 16 17
M  V30 17 1 16 18
M  V30 18 1 17 19
M  V30 19 2 18 20
M  V30 20 2 19 21
M  V30 21 1 7 8
M  V30 22 2 14 15
M  V30 23 1 20 21
M  V30 END BOND
M  V30 END CTAB
M  END
>  <Smiles>
O=C(Nc1c(F)ncc2c1cccn2)Nc1ccccc1

>  <Name>
SPE_0053

>  <Name_tmp>


>  <Residue Name>
S53

$$$$
SPE_0054
Actelion Java MolfileCreator 2.0

  0  0  0  0  0  0              0 V3000
M  V30 BEGIN CTAB
M  V30 COUNTS 20 22 0 0 0
M  V30 BEGIN ATOM
M  V30 1 F 2.598 -1.9999 0.0 0
M  V30 2 C 3.4641 -1.4999 0.0 0
M  V30 3 N 4.3301 -1.9999 0.0 0
M  V30 4 C 3.4641 -0.5 0.0 0
M  V30 5 C 5.1961 -1.4999 0.0 0
M  V30 6 N 2.598 0.0 0.0 0
M  V30 7 C 4.3301 0.0 0.0 0
M  V30 8 C 5.1961 -0.4999 0.0 0
M  V30 9 C 1.732 -0.5 0.0 0
M  V30 10 C 4.538 0.9781 0.0 0
M  V30 11 N 5.9392 0.1691 0.0 0
M  V30 12 O 1.732 -1.5 0.0 0
M  V30 13 N 0.866 0.0 0.0 0
M  V30 14 C 5.5325 1.0826 0.0 0
M  V30 15 C 0.0 -0.5 0.0 0
M  V30 16 C -0.866 0.0 0.0 0
M  V30 17 C 0.0 -1.4999 0.0 0
M  V30 18 C -1.732 -0.4999 0.0 0
M  V30 19 C -0.866 -1.9999 0.0 0
M  V30 20 C -1.732 -1.4999 0.0 0
M  V30 END ATOM
M  V30 BEGIN BOND
M  V30 1 1 1 2
M  V30 2 2 2 3
M  V30 3 1 2 4
M  V30 4 1 3 5
M  V30 5 1 4 6
M  V30 6 2 4 7
M  V30 7 2 5 8
M  V30 8 1 6 9
M  V30 9 1 7 10
M  V30 10 1 8 11
M  V30 11 2 9 12
M  V30 12 1 9 13
M  V30 13 2 10 14
M  V30 14 1 13 15
M  V30 15 2 15 16
M  V30 16 1 15 17
M  V30 17 1 16 18
M  V30 18 2 17 19
M  V30 19 2 18 20
M  V30 20 1 7 8
M  V30 21 1 11 14
M  V30 22 1 19 20
M  V30 END BOND
M  V30 END CTAB
M  END
>  <Smiles>
O=C(Nc1c(F)ncc2c1cc[nH]2)Nc1ccccc1

>  <Name>
SPE_0054

>  <Name_tmp>


>  <Residue Name>
S54

$$$$
SPE_0055
Actelion Java MolfileCreator 2.0

  0  0  0  0  0  0              0 V3000
M  V30 BEGIN CTAB
M  V30 COUNTS 20 22 0 0 0
M  V30 BEGIN ATOM
M  V30 1 F 2.598 -1.9999 0.0 0
M  V30 2 C 3.4641 -1.4999 0.0 0
M  V30 3 N 4.3301 -1.9999 0.0 0
M  V30 4 C 3.4641 -0.5 0.0 0
M  V30 5 C 5.1961 -1.4999 0.0 0
M  V30 6 N 2.598 0.0 0.0 0
M  V30 7 C 4.3301 0.0 0.0 0
M  V30 8 N 5.1961 -0.4999 0.0 0
M  V30 9 C 1.732 -0.5 0.0 0
M  V30 10 C 4.538 0.9781 0.0 0
M  V30 11 N 5.9392 0.1691 0.0 0
M  V30 12 O 1.732 -1.5 0.0 0
M  V30 13 N 0.866 0.0 0.0 0
M  V30 14 C 5.5325 1.0826 0.0 0
M  V30 15 C 0.0 -0.5 0.0 0
M  V30 16 C -0.866 0.0 0.0 0
M  V30 17 C 0.0 -1.4999 0.0 0
M  V30 18 C -1.732 -0.4999 0.0 0
M  V30 19 C -0.866 -1.9999 0.0 0
M  V30 20 C -1.732 -1.4999 0.0 0
M  V30 END ATOM
M  V30 BEGIN BOND
M  V30 1 1 1 2
M  V30 2 1 2 3
M  V30 3 2 2 4
M  V30 4 2 3 5
M  V30 5 1 4 6
M  V30 6 1 4 7
M  V30 7 1 5 8
M  V30 8 1 6 9
M  V30 9 2 7 10
M  V30 10 1 8 11
M  V30 11 2 9 12
M  V30 12 1 9 13
M  V30 13 1 10 14
M  V30 14 1 13 15
M  V30 15 2 15 16
M  V30 16 1 15 17
M  V30 17 1 16 18
M  V30 18 2 17 19
M  V30 19 2 18 20
M  V30 20 1 7 8
M  V30 21 2 11 14
M  V30 22 1 19 20
M  V30 END BOND
M  V30 END CTAB
M  END
>  <Smiles>
O=C(Nc1c(F)ncn2c1ccn2)Nc1ccccc1

>  <Name>
SPE_0055

>  <Name_tmp>


>  <Residue Name>
S55

$$$$
SPE_0056
Actelion Java MolfileCreator 2.0

  0  0  0  0  0  0              0 V3000
M  V30 BEGIN CTAB
M  V30 COUNTS 20 22 0 0 0
M  V30 BEGIN ATOM
M  V30 1 F 2.598 -1.9999 0.0 0
M  V30 2 C 3.4641 -1.4999 0.0 0
M  V30 3 N 4.3301 -1.9999 0.0 0
M  V30 4 C 3.4641 -0.5 0.0 0
M  V30 5 C 5.1961 -1.4999 0.0 0
M  V30 6 N 4.3301 0.0 0.0 0
M  V30 7 N 2.598 0.0 0.0 0
M  V30 8 C 5.1961 -0.4999 0.0 0
M  V30 9 C 4.538 0.9781 0.0 0
M  V30 10 C 1.732 -0.5 0.0 0
M  V30 11 N 5.9392 0.1691 0.0 0
M  V30 12 C 5.5325 1.0826 0.0 0
M  V30 13 O 1.732 -1.5 0.0 0
M  V30 14 N 0.866 0.0 0.0 0
M  V30 15 C 0.0 -0.5 0.0 0
M  V30 16 C -0.866 0.0 0.0 0
M  V30 17 C 0.0 -1.4999 0.0 0
M  V30 18 C -1.732 -0.4999 0.0 0
M  V30 19 C -0.866 -1.9999 0.0 0
M  V30 20 C -1.732 -1.4999 0.0 0
M  V30 END ATOM
M  V30 BEGIN BOND
M  V30 1 1 1 2
M  V30 2 1 2 3
M  V30 3 2 2 4
M  V30 4 2 3 5
M  V30 5 1 4 6
M  V30 6 1 4 7
M  V30 7 1 5 8
M  V30 8 1 6 9
M  V30 9 1 7 10
M  V30 10 2 8 11
M  V30 11 2 9 12
M  V30 12 2 10 13
M  V30 13 1 10 14
M  V30 14 1 14 15
M  V30 15 2 15 16
M  V30 16 1 15 17
M  V30 17 1 16 18
M  V30 18 2 17 19
M  V30 19 2 18 20
M  V30 20 1 6 8
M  V30 21 1 11 12
M  V30 22 1 19 20
M  V30 END BOND
M  V30 END CTAB
M  END
>  <Smiles>
O=C(Nc1c(F)ncc2n1ccn2)Nc1ccccc1

>  <Name>
SPE_0056

>  <Name_tmp>


>  <Residue Name>
S56

$$$$
SPE_0057
Actelion Java MolfileCreator 2.0

  0  0  0  0  0  0              0 V3000
M  V30 BEGIN CTAB
M  V30 COUNTS 20 22 0 0 0
M  V30 BEGIN ATOM
M  V30 1 F 2.598 -1.9999 0.0 0
M  V30 2 C 3.4641 -1.4999 0.0 0
M  V30 3 N 4.3301 -1.9999 0.0 0
M  V30 4 C 3.4641 -0.5 0.0 0
M  V30 5 C 5.1961 -1.4999 0.0 0
M  V30 6 N 2.598 0.0 0.0 0
M  V30 7 C 4.3301 0.0 0.0 0
M  V30 8 C 5.1961 -0.4999 0.0 0
M  V30 9 C 1.732 -0.5 0.0 0
M  V30 10 N 4.538 0.9781 0.0 0
M  V30 11 N 5.9392 0.1691 0.0 0
M  V30 12 O 1.732 -1.5 0.0 0
M  V30 13 N 0.866 0.0 0.0 0
M  V30 14 C 5.5325 1.0826 0.0 0
M  V30 15 C 0.0 -0.5 0.0 0
M  V30 16 C -0.866 0.0 0.0 0
M  V30 17 C 0.0 -1.4999 0.0 0
M  V30 18 C -1.732 -0.4999 0.0 0
M  V30 19 C -0.866 -1.9999 0.0 0
M  V30 20 C -1.732 -1.4999 0.0 0
M  V30 END ATOM
M  V30 BEGIN BOND
M  V30 1 1 1 2
M  V30 2 2 2 3
M  V30 3 1 2 4
M  V30 4 1 3 5
M  V30 5 1 4 6
M  V30 6 2 4 7
M  V30 7 2 5 8
M  V30 8 1 6 9
M  V30 9 1 7 10
M  V30 10 1 8 11
M  V30 11 2 9 12
M  V30 12 1 9 13
M  V30 13 2 10 14
M  V30 14 1 13 15
M  V30 15 2 15 16
M  V30 16 1 15 17
M  V30 17 1 16 18
M  V30 18 2 17 19
M  V30 19 2 18 20
M  V30 20 1 7 8
M  V30 21 1 11 14
M  V30 22 1 19 20
M  V30 END BOND
M  V30 END CTAB
M  END
>  <Smiles>
O=C(Nc1c(F)ncc2c1nc[nH]2)Nc1ccccc1

>  <Name>
SPE_0057

>  <Name_tmp>


>  <Residue Name>
S57

$$$$
SPE_0058
Actelion Java MolfileCreator 2.0

  0  0  0  0  0  0              0 V3000
M  V30 BEGIN CTAB
M  V30 COUNTS 20 22 0 0 0
M  V30 BEGIN ATOM
M  V30 1 F 2.598 -1.9999 0.0 0
M  V30 2 C 3.4641 -1.4999 0.0 0
M  V30 3 N 4.3301 -1.9999 0.0 0
M  V30 4 C 3.4641 -0.5 0.0 0
M  V30 5 C 5.1961 -1.4999 0.0 0
M  V30 6 N 2.598 0.0 0.0 0
M  V30 7 C 4.3301 0.0 0.0 0
M  V30 8 C 5.1961 -0.4999 0.0 0
M  V30 9 C 1.732 -0.5 0.0 0
M  V30 10 C 4.538 0.9781 0.0 0
M  V30 11 N 5.9392 0.1691 0.0 0
M  V30 12 O 1.732 -1.5 0.0 0
M  V30 13 N 0.866 0.0 0.0 0
M  V30 14 N 5.5325 1.0826 0.0 0
M  V30 15 C 0.0 -0.5 0.0 0
M  V30 16 C -0.866 0.0 0.0 0
M  V30 17 C 0.0 -1.4999 0.0 0
M  V30 18 C -1.732 -0.4999 0.0 0
M  V30 19 C -0.866 -1.9999 0.0 0
M  V30 20 C -1.732 -1.4999 0.0 0
M  V30 END ATOM
M  V30 BEGIN BOND
M  V30 1 1 1 2
M  V30 2 2 2 3
M  V30 3 1 2 4
M  V30 4 1 3 5
M  V30 5 1 4 6
M  V30 6 2 4 7
M  V30 7 2 5 8
M  V30 8 1 6 9
M  V30 9 1 7 10
M  V30 10 1 8 11
M  V30 11 2 9 12
M  V30 12 1 9 13
M  V30 13 2 10 14
M  V30 14 1 13 15
M  V30 15 2 15 16
M  V30 16 1 15 17
M  V30 17 1 16 18
M  V30 18 2 17 19
M  V30 19 2 18 20
M  V30 20 1 7 8
M  V30 21 1 11 14
M  V30 22 1 19 20
M  V30 END BOND
M  V30 END CTAB
M  END
>  <Smiles>
O=C(Nc1c(F)ncc2c1cn[nH]2)Nc1ccccc1

>  <Name>
SPE_0058

>  <Name_tmp>


>  <Residue Name>
S58

$$$$
SPE_0059
Actelion Java MolfileCreator 2.0

  0  0  0  0  0  0              0 V3000
M  V30 BEGIN CTAB
M  V30 COUNTS 21 23 0 0 0
M  V30 BEGIN ATOM
M  V30 1 F 2.598 -1.9999 0.0 0
M  V30 2 C 3.4641 -1.4999 0.0 0
M  V30 3 N 4.3301 -1.9999 0.0 0
M  V30 4 C 3.4641 -0.5 0.0 0
M  V30 5 C 5.1961 -1.4999 0.0 0
M  V30 6 N 2.598 0.0 0.0 0
M  V30 7 C 4.3301 0.0 0.0 0
M  V30 8 C 5.1961 -0.4999 0.0 0
M  V30 9 C 1.732 -0.5 0.0 0
M  V30 10 N 4.3301 0.9999 0.0 0
M  V30 11 N 6.0621 0.0 0.0 0
M  V30 12 O 1.732 -1.5 0.0 0
M  V30 13 N 0.866 0.0 0.0 0
M  V30 14 C 5.1961 1.5 0.0 0
M  V30 15 C 6.0621 1.0 0.0 0
M  V30 16 C 0.0 -0.5 0.0 0
M  V30 17 C -0.866 0.0 0.0 0
M  V30 18 C 0.0 -1.4999 0.0 0
M  V30 19 C -1.732 -0.4999 0.0 0
M  V30 20 C -0.866 -1.9999 0.0 0
M  V30 21 C -1.732 -1.4999 0.0 0
M  V30 END ATOM
M  V30 BEGIN BOND
M  V30 1 1 1 2
M  V30 2 1 2 3
M  V30 3 2 2 4
M  V30 4 2 3 5
M  V30 5 1 4 6
M  V30 6 1 4 7
M  V30 7 1 5 8
M  V30 8 1 6 9
M  V30 9 2 7 10
M  V30 10 2 8 11
M  V30 11 2 9 12
M  V30 12 1 9 13
M  V30 13 1 10 14
M  V30 14 1 11 15
M  V30 15 1 13 16
M  V30 16 2 16 17
M  V30 17 1 16 18
M  V30 18 1 17 19
M  V30 19 2 18 20
M  V30 20 2 19 21
M  V30 21 1 7 8
M  V30 22 2 14 15
M  V30 23 1 20 21
M  V30 END BOND
M  V30 END CTAB
M  END
>  <Smiles>
O=C(Nc1c(F)ncc2c1nccn2)Nc1ccccc1

>  <Name>
SPE_0059

>  <Name_tmp>


>  <Residue Name>
S59

$$$$
SPE_0060
Actelion Java MolfileCreator 2.0

  0  0  0  0  0  0              0 V3000
M  V30 BEGIN CTAB
M  V30 COUNTS 17 18 0 0 0
M  V30 BEGIN ATOM
M  V30 1 F 2.598 -1.9999 0.0 0
M  V30 2 C 3.4641 -1.4999 0.0 0
M  V30 3 N 4.3301 -1.9999 0.0 0
M  V30 4 C 3.4641 -0.5 0.0 0
M  V30 5 C 5.1961 -1.4999 0.0 0
M  V30 6 N 2.598 0.0 0.0 0
M  V30 7 C 4.3301 0.0 0.0 0
M  V30 8 C 5.1961 -0.4999 0.0 0
M  V30 9 C 1.732 -0.5 0.0 0
M  V30 10 O 1.732 -1.5 0.0 0
M  V30 11 C 0.866 0.0 0.0 0
M  V30 12 C 0.0 -0.5 0.0 0
M  V30 13 C -0.866 0.0 0.0 0
M  V30 14 C 0.0 -1.4999 0.0 0
M  V30 15 C -1.732 -0.4999 0.0 0
M  V30 16 C -0.866 -1.9999 0.0 0
M  V30 17 C -1.732 -1.4999 0.0 0
M  V30 END ATOM
M  V30 BEGIN BOND
M  V30 1 1 1 2
M  V30 2 2 2 3
M  V30 3 1 2 4
M  V30 4 1 3 5
M  V30 5 1 4 6
M  V30 6 2 4 7
M  V30 7 2 5 8
M  V30 8 1 6 9
M  V30 9 2 9 10
M  V30 10 1 9 11
M  V30 11 1 11 12
M  V30 12 1 12 13
M  V30 13 1 12 14
M  V30 14 1 13 15
M  V30 15 1 14 16
M  V30 16 1 15 17
M  V30 17 1 7 8
M  V30 18 1 16 17
M  V30 END BOND
M  V30 END CTAB
M  END
>  <Smiles>
O=C(Nc1cccnc1F)CC1CCCCC1

>  <Name>
SPE_0060

>  <Name_tmp>


>  <Residue Name>
S60

$$$$
SPE_0061
Actelion Java MolfileCreator 2.0

  0  0  0  0  0  0              0 V3000
M  V30 BEGIN CTAB
M  V30 COUNTS 18 19 0 0 0
M  V30 BEGIN ATOM
M  V30 1 F 2.598 -1.9999 0.0 0
M  V30 2 C 3.4641 -1.4999 0.0 0
M  V30 3 N 4.3301 -1.9999 0.0 0
M  V30 4 C 3.4641 -0.5 0.0 0
M  V30 5 C 5.1961 -1.4999 0.0 0
M  V30 6 N 2.598 0.0 0.0 0
M  V30 7 C 4.3301 0.0 0.0 0
M  V30 8 C 5.1961 -0.4999 0.0 0
M  V30 9 C 1.732 -0.5 0.0 0
M  V30 10 N 6.0621 0.0 0.0 0
M  V30 11 O 1.732 -1.5 0.0 0
M  V30 12 C 0.866 0.0 0.0 0
M  V30 13 C 0.0 -0.5 0.0 0
M  V30 14 C -0.866 0.0 0.0 0
M  V30 15 C 0.0 -1.4999 0.0 0
M  V30 16 C -1.732 -0.4999 0.0 0
M  V30 17 C -0.866 -1.9999 0.0 0
M  V30 18 C -1.732 -1.4999 0.0 0
M  V30 END ATOM
M  V30 BEGIN BOND
M  V30 1 1 1 2
M  V30 2 2 2 3
M  V30 3 1 2 4
M  V30 4 1 3 5
M  V30 5 1 4 6
M  V30 6 2 4 7
M  V30 7 2 5 8
M  V30 8 1 6 9
M  V30 9 1 8 10
M  V30 10 2 9 11
M  V30 11 1 9 12
M  V30 12 1 12 13
M  V30 13 1 13 14
M  V30 14 1 13 15
M  V30 15 1 14 16
M  V30 16 1 15 17
M  V30 17 1 16 18
M  V30 18 1 7 8
M  V30 19 1 17 18
M  V30 END BOND
M  V30 END CTAB
M  END
>  <Smiles>
O=C(Nc1cc(N)cnc1F)CC1CCCCC1

>  <Name>
SPE_0061

>  <Name_tmp>


>  <Residue Name>
S61

$$$$
SPE_0062
Actelion Java MolfileCreator 2.0

  0  0  0  0  0  0              0 V3000
M  V30 BEGIN CTAB
M  V30 COUNTS 19 20 0 0 0
M  V30 BEGIN ATOM
M  V30 1 F 2.598 -1.9999 0.0 0
M  V30 2 C 3.4641 -1.4999 0.0 0
M  V30 3 N 4.3301 -1.9999 0.0 0
M  V30 4 C 3.4641 -0.5 0.0 0
M  V30 5 C 5.1961 -1.4999 0.0 0
M  V30 6 N 2.598 0.0 0.0 0
M  V30 7 C 4.3301 0.0 0.0 0
M  V30 8 C 5.1961 -0.4999 0.0 0
M  V30 9 C 1.732 -0.5 0.0 0
M  V30 10 N 6.0621 0.0 0.0 0
M  V30 11 O 1.732 -1.5 0.0 0
M  V30 12 C 0.866 0.0 0.0 0
M  V30 13 C 6.0621 1.0 0.0 0
M  V30 14 C 0.0 -0.5 0.0 0
M  V30 15 C -0.866 0.0 0.0 0
M  V30 16 C 0.0 -1.4999 0.0 0
M  V30 17 C -1.732 -0.4999 0.0 0
M  V30 18 C -0.866 -1.9999 0.0 0
M  V30 19 C -1.732 -1.4999 0.0 0
M  V30 END ATOM
M  V30 BEGIN BOND
M  V30 1 1 1 2
M  V30 2 2 2 3
M  V30 3 1 2 4
M  V30 4 1 3 5
M  V30 5 1 4 6
M  V30 6 2 4 7
M  V30 7 2 5 8
M  V30 8 1 6 9
M  V30 9 1 8 10
M  V30 10 2 9 11
M  V30 11 1 9 12
M  V30 12 1 10 13
M  V30 13 1 12 14
M  V30 14 1 14 15
M  V30 15 1 14 16
M  V30 16 1 15 17
M  V30 17 1 16 18
M  V30 18 1 17 19
M  V30 19 1 7 8
M  V30 20 1 18 19
M  V30 END BOND
M  V30 END CTAB
M  END
>  <Smiles>
CNc1cnc(c(c1)NC(=O)CC1CCCCC1)F

>  <Name>
SPE_0062

>  <Name_tmp>


>  <Residue Name>
S62

$$$$
SPE_0063
Actelion Java MolfileCreator 2.0

  0  0  0  0  0  0              0 V3000
M  V30 BEGIN CTAB
M  V30 COUNTS 20 21 0 0 0
M  V30 BEGIN ATOM
M  V30 1 F 2.598 -1.9999 0.0 0
M  V30 2 C 3.4641 -1.4999 0.0 0
M  V30 3 N 4.3301 -1.9999 0.0 0
M  V30 4 C 3.4641 -0.5 0.0 0
M  V30 5 C 5.1961 -1.4999 0.0 0
M  V30 6 N 2.598 0.0 0.0 0
M  V30 7 C 4.3301 0.0 0.0 0
M  V30 8 C 5.1961 -0.4999 0.0 0
M  V30 9 C 1.732 -0.5 0.0 0
M  V30 10 N 6.0621 0.0 0.0 0
M  V30 11 O 1.732 -1.5 0.0 0
M  V30 12 C 0.866 0.0 0.0 0
M  V30 13 C 6.9282 -0.4999 0.0 0
M  V30 14 C 6.0621 1.0 0.0 0
M  V30 15 C 0.0 -0.5 0.0 0
M  V30 16 C -0.866 0.0 0.0 0
M  V30 17 C 0.0 -1.4999 0.0 0
M  V30 18 C -1.732 -0.4999 0.0 0
M  V30 19 C -0.866 -1.9999 0.0 0
M  V30 20 C -1.732 -1.4999 0.0 0
M  V30 END ATOM
M  V30 BEGIN BOND
M  V30 1 1 1 2
M  V30 2 2 2 3
M  V30 3 1 2 4
M  V30 4 1 3 5
M  V30 5 1 4 6
M  V30 6 2 4 7
M  V30 7 2 5 8
M  V30 8 1 6 9
M  V30 9 1 8 10
M  V30 10 2 9 11
M  V30 11 1 9 12
M  V30 12 1 10 13
M  V30 13 1 10 14
M  V30 14 1 12 15
M  V30 15 1 15 16
M  V30 16 1 15 17
M  V30 17 1 16 18
M  V30 18 1 17 19
M  V30 19 1 18 20
M  V30 20 1 7 8
M  V30 21 1 19 20
M  V30 END BOND
M  V30 END CTAB
M  END
>  <Smiles>
CN(c1cnc(c(c1)NC(=O)CC1CCCCC1)F)C

>  <Name>
SPE_0063

>  <Name_tmp>


>  <Residue Name>
S63

$$$$
SPE_0064
Actelion Java MolfileCreator 2.0

  0  0  0  0  0  0              0 V3000
M  V30 BEGIN CTAB
M  V30 COUNTS 21 23 0 0 0
M  V30 BEGIN ATOM
M  V30 1 F 2.598 -1.9999 0.0 0
M  V30 2 C 3.4641 -1.4999 0.0 0
M  V30 3 N 4.3301 -1.9999 0.0 0
M  V30 4 C 3.4641 -0.5 0.0 0
M  V30 5 C 5.1961 -1.4999 0.0 0
M  V30 6 N 2.598 0.0 0.0 0
M  V30 7 C 4.3301 0.0 0.0 0
M  V30 8 C 5.1961 -0.4999 0.0 0
M  V30 9 C 1.732 -0.5 0.0 0
M  V30 10 C 4.3301 0.9999 0.0 0
M  V30 11 N 6.0621 0.0 0.0 0
M  V30 12 O 1.732 -1.5 0.0 0
M  V30 13 C 0.866 0.0 0.0 0
M  V30 14 N 5.1961 1.5 0.0 0
M  V30 15 C 6.0621 1.0 0.0 0
M  V30 16 C 0.0 -0.5 0.0 0
M  V30 17 C -0.866 0.0 0.0 0
M  V30 18 C 0.0 -1.4999 0.0 0
M  V30 19 C -1.732 -0.4999 0.0 0
M  V30 20 C -0.866 -1.9999 0.0 0
M  V30 21 C -1.732 -1.4999 0.0 0
M  V30 END ATOM
M  V30 BEGIN BOND
M  V30 1 1 1 2
M  V30 2 1 2 3
M  V30 3 2 2 4
M  V30 4 2 3 5
M  V30 5 1 4 6
M  V30 6 1 4 7
M  V30 7 1 5 8
M  V30 8 1 6 9
M  V30 9 2 7 10
M  V30 10 2 8 11
M  V30 11 2 9 12
M  V30 12 1 9 13
M  V30 13 1 10 14
M  V30 14 1 11 15
M  V30 15 1 13 16
M  V30 16 1 16 17
M  V30 17 1 16 18
M  V30 18 1 17 19
M  V30 19 1 18 20
M  V30 20 1 19 21
M  V30 21 1 7 8
M  V30 22 2 14 15
M  V30 23 1 20 21
M  V30 END BOND
M  V30 END CTAB
M  END
>  <Smiles>
O=C(Nc1c(F)ncc2c1cncn2)CC1CCCCC1

>  <Name>
SPE_0064

>  <Name_tmp>


>  <Residue Name>
S64

$$$$
SPE_0065
Actelion Java MolfileCreator 2.0

  0  0  0  0  0  0              0 V3000
M  V30 BEGIN CTAB
M  V30 COUNTS 21 23 0 0 0
M  V30 BEGIN ATOM
M  V30 1 F 2.598 -1.9999 0.0 0
M  V30 2 C 3.4641 -1.4999 0.0 0
M  V30 3 N 4.3301 -1.9999 0.0 0
M  V30 4 C 3.4641 -0.5 0.0 0
M  V30 5 C 5.1961 -1.4999 0.0 0
M  V30 6 N 2.598 0.0 0.0 0
M  V30 7 C 4.3301 0.0 0.0 0
M  V30 8 C 5.1961 -0.4999 0.0 0
M  V30 9 C 1.732 -0.5 0.0 0
M  V30 10 C 4.3301 0.9999 0.0 0
M  V30 11 N 6.0621 0.0 0.0 0
M  V30 12 O 1.732 -1.5 0.0 0
M  V30 13 C 0.866 0.0 0.0 0
M  V30 14 C 5.1961 1.5 0.0 0
M  V30 15 C 6.0621 1.0 0.0 0
M  V30 16 C 0.0 -0.5 0.0 0
M  V30 17 C -0.866 0.0 0.0 0
M  V30 18 C 0.0 -1.4999 0.0 0
M  V30 19 C -1.732 -0.4999 0.0 0
M  V30 20 C -0.866 -1.9999 0.0 0
M  V30 21 C -1.732 -1.4999 0.0 0
M  V30 END ATOM
M  V30 BEGIN BOND
M  V30 1 1 1 2
M  V30 2 1 2 3
M  V30 3 2 2 4
M  V30 4 2 3 5
M  V30 5 1 4 6
M  V30 6 1 4 7
M  V30 7 1 5 8
M  V30 8 1 6 9
M  V30 9 2 7 10
M  V30 10 2 8 11
M  V30 11 2 9 12
M  V30 12 1 9 13
M  V30 13 1 10 14
M  V30 14 1 11 15
M  V30 15 1 13 16
M  V30 16 1 16 17
M  V30 17 1 16 18
M  V30 18 1 17 19
M  V30 19 1 18 20
M  V30 20 1 19 21
M  V30 21 1 7 8
M  V30 22 2 14 15
M  V30 23 1 20 21
M  V30 END BOND
M  V30 END CTAB
M  END
>  <Smiles>
O=C(Nc1c(F)ncc2c1cccn2)CC1CCCCC1

>  <Name>
SPE_0065

>  <Name_tmp>


>  <Residue Name>
S65

$$$$
SPE_0066
Actelion Java MolfileCreator 2.0

  0  0  0  0  0  0              0 V3000
M  V30 BEGIN CTAB
M  V30 COUNTS 20 22 0 0 0
M  V30 BEGIN ATOM
M  V30 1 F 2.598 -1.9999 0.0 0
M  V30 2 C 3.4641 -1.4999 0.0 0
M  V30 3 N 4.3301 -1.9999 0.0 0
M  V30 4 C 3.4641 -0.5 0.0 0
M  V30 5 C 5.1961 -1.4999 0.0 0
M  V30 6 N 2.598 0.0 0.0 0
M  V30 7 C 4.3301 0.0 0.0 0
M  V30 8 C 5.1961 -0.4999 0.0 0
M  V30 9 C 1.732 -0.5 0.0 0
M  V30 10 C 4.538 0.9781 0.0 0
M  V30 11 N 5.9392 0.1691 0.0 0
M  V30 12 O 1.732 -1.5 0.0 0
M  V30 13 C 0.866 0.0 0.0 0
M  V30 14 C 5.5325 1.0826 0.0 0
M  V30 15 C 0.0 -0.5 0.0 0
M  V30 16 C -0.866 0.0 0.0 0
M  V30 17 C 0.0 -1.4999 0.0 0
M  V30 18 C -1.732 -0.4999 0.0 0
M  V30 19 C -0.866 -1.9999 0.0 0
M  V30 20 C -1.732 -1.4999 0.0 0
M  V30 END ATOM
M  V30 BEGIN BOND
M  V30 1 1 1 2
M  V30 2 2 2 3
M  V30 3 1 2 4
M  V30 4 1 3 5
M  V30 5 1 4 6
M  V30 6 2 4 7
M  V30 7 2 5 8
M  V30 8 1 6 9
M  V30 9 1 7 10
M  V30 10 1 8 11
M  V30 11 2 9 12
M  V30 12 1 9 13
M  V30 13 2 10 14
M  V30 14 1 13 15
M  V30 15 1 15 16
M  V30 16 1 15 17
M  V30 17 1 16 18
M  V30 18 1 17 19
M  V30 19 1 18 20
M  V30 20 1 7 8
M  V30 21 1 11 14
M  V30 22 1 19 20
M  V30 END BOND
M  V30 END CTAB
M  END
>  <Smiles>
O=C(Nc1c(F)ncc2c1cc[nH]2)CC1CCCCC1

>  <Name>
SPE_0066

>  <Name_tmp>


>  <Residue Name>
S66

$$$$
SPE_0067
Actelion Java MolfileCreator 2.0

  0  0  0  0  0  0              0 V3000
M  V30 BEGIN CTAB
M  V30 COUNTS 20 22 0 0 0
M  V30 BEGIN ATOM
M  V30 1 F 2.598 -1.9999 0.0 0
M  V30 2 C 3.4641 -1.4999 0.0 0
M  V30 3 N 4.3301 -1.9999 0.0 0
M  V30 4 C 3.4641 -0.5 0.0 0
M  V30 5 C 5.1961 -1.4999 0.0 0
M  V30 6 N 2.598 0.0 0.0 0
M  V30 7 C 4.3301 0.0 0.0 0
M  V30 8 N 5.1961 -0.4999 0.0 0
M  V30 9 C 1.732 -0.5 0.0 0
M  V30 10 C 4.538 0.9781 0.0 0
M  V30 11 N 5.9392 0.1691 0.0 0
M  V30 12 O 1.732 -1.5 0.0 0
M  V30 13 C 0.866 0.0 0.0 0
M  V30 14 C 5.5325 1.0826 0.0 0
M  V30 15 C 0.0 -0.5 0.0 0
M  V30 16 C -0.866 0.0 0.0 0
M  V30 17 C 0.0 -1.4999 0.0 0
M  V30 18 C -1.732 -0.4999 0.0 0
M  V30 19 C -0.866 -1.9999 0.0 0
M  V30 20 C -1.732 -1.4999 0.0 0
M  V30 END ATOM
M  V30 BEGIN BOND
M  V30 1 1 1 2
M  V30 2 1 2 3
M  V30 3 2 2 4
M  V30 4 2 3 5
M  V30 5 1 4 6
M  V30 6 1 4 7
M  V30 7 1 5 8
M  V30 8 1 6 9
M  V30 9 2 7 10
M  V30 10 1 8 11
M  V30 11 2 9 12
M  V30 12 1 9 13
M  V30 13 1 10 14
M  V30 14 1 13 15
M  V30 15 1 15 16
M  V30 16 1 15 17
M  V30 17 1 16 18
M  V30 18 1 17 19
M  V30 19 1 18 20
M  V30 20 1 7 8
M  V30 21 2 11 14
M  V30 22 1 19 20
M  V30 END BOND
M  V30 END CTAB
M  END
>  <Smiles>
O=C(Nc1c(F)ncn2c1ccn2)CC1CCCCC1

>  <Name>
SPE_0067

>  <Name_tmp>


>  <Residue Name>
S67

$$$$
SPE_0068
Actelion Java MolfileCreator 2.0

  0  0  0  0  0  0              0 V3000
M  V30 BEGIN CTAB
M  V30 COUNTS 20 22 0 0 0
M  V30 BEGIN ATOM
M  V30 1 F 2.598 -1.9999 0.0 0
M  V30 2 C 3.4641 -1.4999 0.0 0
M  V30 3 N 4.3301 -1.9999 0.0 0
M  V30 4 C 3.4641 -0.5 0.0 0
M  V30 5 C 5.1961 -1.4999 0.0 0
M  V30 6 N 4.3301 0.0 0.0 0
M  V30 7 N 2.598 0.0 0.0 0
M  V30 8 C 5.1961 -0.4999 0.0 0
M  V30 9 C 4.538 0.9781 0.0 0
M  V30 10 C 1.732 -0.5 0.0 0
M  V30 11 N 5.9392 0.1691 0.0 0
M  V30 12 C 5.5325 1.0826 0.0 0
M  V30 13 O 1.732 -1.5 0.0 0
M  V30 14 C 0.866 0.0 0.0 0
M  V30 15 C 0.0 -0.5 0.0 0
M  V30 16 C -0.866 0.0 0.0 0
M  V30 17 C 0.0 -1.4999 0.0 0
M  V30 18 C -1.732 -0.4999 0.0 0
M  V30 19 C -0.866 -1.9999 0.0 0
M  V30 20 C -1.732 -1.4999 0.0 0
M  V30 END ATOM
M  V30 BEGIN BOND
M  V30 1 1 1 2
M  V30 2 1 2 3
M  V30 3 2 2 4
M  V30 4 2 3 5
M  V30 5 1 4 6
M  V30 6 1 4 7
M  V30 7 1 5 8
M  V30 8 1 6 9
M  V30 9 1 7 10
M  V30 10 2 8 11
M  V30 11 2 9 12
M  V30 12 2 10 13
M  V30 13 1 10 14
M  V30 14 1 14 15
M  V30 15 1 15 16
M  V30 16 1 15 17
M  V30 17 1 16 18
M  V30 18 1 17 19
M  V30 19 1 18 20
M  V30 20 1 6 8
M  V30 21 1 11 12
M  V30 22 1 19 20
M  V30 END BOND
M  V30 END CTAB
M  END
>  <Smiles>
O=C(Nc1c(F)ncc2n1ccn2)CC1CCCCC1

>  <Name>
SPE_0068

>  <Name_tmp>


>  <Residue Name>
S68

$$$$
SPE_0069
Actelion Java MolfileCreator 2.0

  0  0  0  0  0  0              0 V3000
M  V30 BEGIN CTAB
M  V30 COUNTS 20 22 0 0 0
M  V30 BEGIN ATOM
M  V30 1 F 2.598 -1.9999 0.0 0
M  V30 2 C 3.4641 -1.4999 0.0 0
M  V30 3 N 4.3301 -1.9999 0.0 0
M  V30 4 C 3.4641 -0.5 0.0 0
M  V30 5 C 5.1961 -1.4999 0.0 0
M  V30 6 N 2.598 0.0 0.0 0
M  V30 7 C 4.3301 0.0 0.0 0
M  V30 8 C 5.1961 -0.4999 0.0 0
M  V30 9 C 1.732 -0.5 0.0 0
M  V30 10 N 4.538 0.9781 0.0 0
M  V30 11 N 5.9392 0.1691 0.0 0
M  V30 12 O 1.732 -1.5 0.0 0
M  V30 13 C 0.866 0.0 0.0 0
M  V30 14 C 5.5325 1.0826 0.0 0
M  V30 15 C 0.0 -0.5 0.0 0
M  V30 16 C -0.866 0.0 0.0 0
M  V30 17 C 0.0 -1.4999 0.0 0
M  V30 18 C -1.732 -0.4999 0.0 0
M  V30 19 C -0.866 -1.9999 0.0 0
M  V30 20 C -1.732 -1.4999 0.0 0
M  V30 END ATOM
M  V30 BEGIN BOND
M  V30 1 1 1 2
M  V30 2 2 2 3
M  V30 3 1 2 4
M  V30 4 1 3 5
M  V30 5 1 4 6
M  V30 6 2 4 7
M  V30 7 2 5 8
M  V30 8 1 6 9
M  V30 9 1 7 10
M  V30 10 1 8 11
M  V30 11 2 9 12
M  V30 12 1 9 13
M  V30 13 2 10 14
M  V30 14 1 13 15
M  V30 15 1 15 16
M  V30 16 1 15 17
M  V30 17 1 16 18
M  V30 18 1 17 19
M  V30 19 1 18 20
M  V30 20 1 7 8
M  V30 21 1 11 14
M  V30 22 1 19 20
M  V30 END BOND
M  V30 END CTAB
M  END
>  <Smiles>
O=C(Nc1c(F)ncc2c1nc[nH]2)CC1CCCCC1

>  <Name>
SPE_0069

>  <Name_tmp>


>  <Residue Name>
S69

$$$$
SPE_0070
Actelion Java MolfileCreator 2.0

  0  0  0  0  0  0              0 V3000
M  V30 BEGIN CTAB
M  V30 COUNTS 20 22 0 0 0
M  V30 BEGIN ATOM
M  V30 1 F 2.598 -1.9999 0.0 0
M  V30 2 C 3.4641 -1.4999 0.0 0
M  V30 3 N 4.3301 -1.9999 0.0 0
M  V30 4 C 3.4641 -0.5 0.0 0
M  V30 5 C 5.1961 -1.4999 0.0 0
M  V30 6 N 2.598 0.0 0.0 0
M  V30 7 C 4.3301 0.0 0.0 0
M  V30 8 C 5.1961 -0.4999 0.0 0
M  V30 9 C 1.732 -0.5 0.0 0
M  V30 10 C 4.538 0.9781 0.0 0
M  V30 11 N 5.9392 0.1691 0.0 0
M  V30 12 O 1.732 -1.5 0.0 0
M  V30 13 C 0.866 0.0 0.0 0
M  V30 14 N 5.5325 1.0826 0.0 0
M  V30 15 C 0.0 -0.5 0.0 0
M  V30 16 C -0.866 0.0 0.0 0
M  V30 17 C 0.0 -1.4999 0.0 0
M  V30 18 C -1.732 -0.4999 0.0 0
M  V30 19 C -0.866 -1.9999 0.0 0
M  V30 20 C -1.732 -1.4999 0.0 0
M  V30 END ATOM
M  V30 BEGIN BOND
M  V30 1 1 1 2
M  V30 2 2 2 3
M  V30 3 1 2 4
M  V30 4 1 3 5
M  V30 5 1 4 6
M  V30 6 2 4 7
M  V30 7 2 5 8
M  V30 8 1 6 9
M  V30 9 1 7 10
M  V30 10 1 8 11
M  V30 11 2 9 12
M  V30 12 1 9 13
M  V30 13 2 10 14
M  V30 14 1 13 15
M  V30 15 1 15 16
M  V30 16 1 15 17
M  V30 17 1 16 18
M  V30 18 1 17 19
M  V30 19 1 18 20
M  V30 20 1 7 8
M  V30 21 1 11 14
M  V30 22 1 19 20
M  V30 END BOND
M  V30 END CTAB
M  END
>  <Smiles>
O=C(Nc1c(F)ncc2c1cn[nH]2)CC1CCCCC1

>  <Name>
SPE_0070

>  <Name_tmp>


>  <Residue Name>
S70

$$$$
SPE_0071
Actelion Java MolfileCreator 2.0

  0  0  0  0  0  0              0 V3000
M  V30 BEGIN CTAB
M  V30 COUNTS 21 23 0 0 0
M  V30 BEGIN ATOM
M  V30 1 F 2.598 -1.9999 0.0 0
M  V30 2 C 3.4641 -1.4999 0.0 0
M  V30 3 N 4.3301 -1.9999 0.0 0
M  V30 4 C 3.4641 -0.5 0.0 0
M  V30 5 C 5.1961 -1.4999 0.0 0
M  V30 6 N 2.598 0.0 0.0 0
M  V30 7 C 4.3301 0.0 0.0 0
M  V30 8 C 5.1961 -0.4999 0.0 0
M  V30 9 C 1.732 -0.5 0.0 0
M  V30 10 N 4.3301 0.9999 0.0 0
M  V30 11 N 6.0621 0.0 0.0 0
M  V30 12 O 1.732 -1.5 0.0 0
M  V30 13 C 0.866 0.0 0.0 0
M  V30 14 C 5.1961 1.5 0.0 0
M  V30 15 C 6.0621 1.0 0.0 0
M  V30 16 C 0.0 -0.5 0.0 0
M  V30 17 C -0.866 0.0 0.0 0
M  V30 18 C 0.0 -1.4999 0.0 0
M  V30 19 C -1.732 -0.4999 0.0 0
M  V30 20 C -0.866 -1.9999 0.0 0
M  V30 21 C -1.732 -1.4999 0.0 0
M  V30 END ATOM
M  V30 BEGIN BOND
M  V30 1 1 1 2
M  V30 2 1 2 3
M  V30 3 2 2 4
M  V30 4 2 3 5
M  V30 5 1 4 6
M  V30 6 1 4 7
M  V30 7 1 5 8
M  V30 8 1 6 9
M  V30 9 2 7 10
M  V30 10 2 8 11
M  V30 11 2 9 12
M  V30 12 1 9 13
M  V30 13 1 10 14
M  V30 14 1 11 15
M  V30 15 1 13 16
M  V30 16 1 16 17
M  V30 17 1 16 18
M  V30 18 1 17 19
M  V30 19 1 18 20
M  V30 20 1 19 21
M  V30 21 1 7 8
M  V30 22 2 14 15
M  V30 23 1 20 21
M  V30 END BOND
M  V30 END CTAB
M  END
>  <Smiles>
O=C(Nc1c(F)ncc2c1nccn2)CC1CCCCC1

>  <Name>
SPE_0071

>  <Name_tmp>


>  <Residue Name>
S71

$$$$
SPE_0072
Actelion Java MolfileCreator 2.0

  0  0  0  0  0  0              0 V3000
M  V30 BEGIN CTAB
M  V30 COUNTS 19 21 0 0 0
M  V30 BEGIN ATOM
M  V30 1 O 2.598 0.0 0.0 0
M  V30 2 C 1.732 -0.5 0.0 0
M  V30 3 N 1.732 -1.5 0.0 0
M  V30 4 C 0.866 0.0 0.0 0
M  V30 5 C 0.866 -1.9999 0.0 0
M  V30 6 C 2.598 -2.0 0.0 0
M  V30 7 C 0.0 -0.5 0.0 0
M  V30 8 C 0.866 -2.9999 0.0 0
M  V30 9 C 2.598 -3.0 0.0 0
M  V30 10 C -0.9135 -0.0932 0.0 0
M  V30 11 C -0.1045 -1.4945 0.0 0
M  V30 12 N 1.732 -3.5 0.0 0 VAL=4
M  V30 13 C -1.5826 -0.8364 0.0 0
M  V30 14 C -1.2225 0.8577 0.0 0
M  V30 15 N -1.0826 -1.7024 0.0 0
M  V30 16 C 1.732 -4.5 0.0 0
M  V30 17 N -2.5608 -0.6284 0.0 0
M  V30 18 C -2.2007 1.0657 0.0 0
M  V30 19 C -2.8698 0.3225 0.0 0
M  V30 END ATOM
M  V30 BEGIN BOND
M  V30 1 2 1 2
M  V30 2 1 2 3
M  V30 3 1 2 4
M  V30 4 1 3 5
M  V30 5 1 3 6
M  V30 6 1 4 7
M  V30 7 1 5 8
M  V30 8 1 6 9
M  V30 9 1 7 10
M  V30 10 2 7 11
M  V30 11 1 8 12
M  V30 12 2 10 13
M  V30 13 1 10 14
M  V30 14 1 11 15
M  V30 15 1 12 16
M  V30 16 1 13 17
M  V30 17 2 14 18
M  V30 18 2 17 19
M  V30 19 1 9 12
M  V30 20 1 13 15
M  V30 21 1 18 19
M  V30 END BOND
M  V30 END CTAB
M  END
>  <Smiles>
C[NH]1CCN(CC1)C(=O)Cc1c[nH]c2c1cccn2

>  <Name>
SPE_0072

>  <Name_tmp>


>  <Residue Name>
S72

$$$$
SPE_0073
Actelion Java MolfileCreator 2.0

  0  0  0  0  0  0              0 V3000
M  V30 BEGIN CTAB
M  V30 COUNTS 19 21 0 0 0
M  V30 BEGIN ATOM
M  V30 1 O 2.598 0.0 0.0 0
M  V30 2 C 1.732 -0.5 0.0 0
M  V30 3 N 1.732 -1.5 0.0 0
M  V30 4 C 0.866 0.0 0.0 0
M  V30 5 C 0.866 -1.9999 0.0 0
M  V30 6 C 2.598 -2.0 0.0 0
M  V30 7 C 0.0 -0.5 0.0 0
M  V30 8 C 0.866 -2.9999 0.0 0
M  V30 9 C 2.598 -3.0 0.0 0
M  V30 10 C -0.9135 -0.0932 0.0 0
M  V30 11 C -0.1045 -1.4945 0.0 0
M  V30 12 N 1.732 -3.5 0.0 0 VAL=4
M  V30 13 C -1.5826 -0.8364 0.0 0
M  V30 14 C -1.2225 0.8577 0.0 0
M  V30 15 N -1.0826 -1.7024 0.0 0
M  V30 16 C 1.732 -4.5 0.0 0
M  V30 17 N -2.5608 -0.6284 0.0 0
M  V30 18 N -2.2007 1.0657 0.0 0
M  V30 19 C -2.8698 0.3225 0.0 0
M  V30 END ATOM
M  V30 BEGIN BOND
M  V30 1 2 1 2
M  V30 2 1 2 3
M  V30 3 1 2 4
M  V30 4 1 3 5
M  V30 5 1 3 6
M  V30 6 1 4 7
M  V30 7 1 5 8
M  V30 8 1 6 9
M  V30 9 1 7 10
M  V30 10 2 7 11
M  V30 11 1 8 12
M  V30 12 2 10 13
M  V30 13 1 10 14
M  V30 14 1 11 15
M  V30 15 1 12 16
M  V30 16 1 13 17
M  V30 17 2 14 18
M  V30 18 2 17 19
M  V30 19 1 9 12
M  V30 20 1 13 15
M  V30 21 1 18 19
M  V30 END BOND
M  V30 END CTAB
M  END
>  <Smiles>
C[NH]1CCN(CC1)C(=O)Cc1c[nH]c2c1cncn2

>  <Name>
SPE_0073

>  <Name_tmp>


>  <Residue Name>
S73

$$$$
SPE_0074
Actelion Java MolfileCreator 2.0

  0  0  0  0  0  0              0 V3000
M  V30 BEGIN CTAB
M  V30 COUNTS 19 21 0 0 0
M  V30 BEGIN ATOM
M  V30 1 O 2.598 0.0 0.0 0
M  V30 2 C 1.732 -0.5 0.0 0
M  V30 3 N 1.732 -1.5 0.0 0
M  V30 4 C 0.866 0.0 0.0 0
M  V30 5 C 0.866 -1.9999 0.0 0
M  V30 6 C 2.598 -2.0 0.0 0
M  V30 7 C 0.0 -0.5 0.0 0
M  V30 8 C 0.866 -2.9999 0.0 0
M  V30 9 C 2.598 -3.0 0.0 0
M  V30 10 C -0.9135 -0.0932 0.0 0
M  V30 11 C -0.1045 -1.4945 0.0 0
M  V30 12 N 1.732 -3.5 0.0 0 VAL=4
M  V30 13 N -1.2225 0.8577 0.0 0
M  V30 14 C -1.5826 -0.8364 0.0 0
M  V30 15 N -1.0826 -1.7024 0.0 0
M  V30 16 C 1.732 -4.5 0.0 0
M  V30 17 C -2.2007 1.0657 0.0 0
M  V30 18 N -2.5608 -0.6284 0.0 0
M  V30 19 C -2.8698 0.3225 0.0 0
M  V30 END ATOM
M  V30 BEGIN BOND
M  V30 1 2 1 2
M  V30 2 1 2 3
M  V30 3 1 2 4
M  V30 4 1 3 5
M  V30 5 1 3 6
M  V30 6 1 4 7
M  V30 7 1 5 8
M  V30 8 1 6 9
M  V30 9 1 7 10
M  V30 10 2 7 11
M  V30 11 1 8 12
M  V30 12 2 10 13
M  V30 13 1 10 14
M  V30 14 1 11 15
M  V30 15 1 12 16
M  V30 16 1 13 17
M  V30 17 2 14 18
M  V30 18 2 17 19
M  V30 19 1 9 12
M  V30 20 1 14 15
M  V30 21 1 18 19
M  V30 END BOND
M  V30 END CTAB
M  END
>  <Smiles>
C[NH]1CCN(CC1)C(=O)Cc1c[nH]c2c1nccn2

>  <Name>
SPE_0074

>  <Name_tmp>


>  <Residue Name>
S74

$$$$
SPE_0075
Actelion Java MolfileCreator 2.0

  0  0  0  0  0  0              0 V3000
M  V30 BEGIN CTAB
M  V30 COUNTS 20 22 0 0 0
M  V30 BEGIN ATOM
M  V30 1 F 3.7195 -1.3848 0.0 0
M  V30 2 C 3.5116 -0.4067 0.0 0
M  V30 3 N 4.1807 0.3364 0.0 0
M  V30 4 C 2.598 0.0 0.0 0
M  V30 5 C 3.6807 1.2024 0.0 0
M  V30 6 C 2.7026 0.9945 0.0 0
M  V30 7 C 1.732 -0.5 0.0 0
M  V30 8 N 3.9897 2.1534 0.0 0
M  V30 9 C 2.0334 1.7376 0.0 0
M  V30 10 C 0.866 0.0 0.0 0
M  V30 11 C 3.3206 2.8966 0.0 0
M  V30 12 C 2.3424 2.6887 0.0 0
M  V30 13 O 0.866 1.0 0.0 0
M  V30 14 N 0.0 -0.5 0.0 0
M  V30 15 C -0.866 0.0 0.0 0
M  V30 16 C 0.0 -1.4999 0.0 0
M  V30 17 C -1.732 -0.4999 0.0 0
M  V30 18 C -0.866 -1.9999 0.0 0
M  V30 19 N -1.732 -1.4999 0.0 0 VAL=4
M  V30 20 C -2.598 -1.9999 0.0 0
M  V30 END ATOM
M  V30 BEGIN BOND
M  V30 1 1 1 2
M  V30 2 1 2 3
M  V30 3 2 2 4
M  V30 4 1 3 5
M  V30 5 1 4 6
M  V30 6 1 4 7
M  V30 7 1 5 8
M  V30 8 1 6 9
M  V30 9 1 7 10
M  V30 10 2 8 11
M  V30 11 2 9 12
M  V30 12 2 10 13
M  V30 13 1 10 14
M  V30 14 1 14 15
M  V30 15 1 14 16
M  V30 16 1 15 17
M  V30 17 1 16 18
M  V30 18 1 17 19
M  V30 19 1 19 20
M  V30 20 2 5 6
M  V30 21 1 11 12
M  V30 22 1 18 19
M  V30 END BOND
M  V30 END CTAB
M  END
>  <Smiles>
C[NH]1CCN(CC1)C(=O)Cc1c(F)[nH]c2c1cccn2

>  <Name>
SPE_0075

>  <Name_tmp>


>  <Residue Name>
S75

$$$$
SPE_0076
Actelion Java MolfileCreator 2.0

  0  0  0  0  0  0              0 V3000
M  V30 BEGIN CTAB
M  V30 COUNTS 20 22 0 0 0
M  V30 BEGIN ATOM
M  V30 1 F 3.7195 -1.3848 0.0 0
M  V30 2 C 3.5116 -0.4067 0.0 0
M  V30 3 N 4.1807 0.3364 0.0 0
M  V30 4 C 2.598 0.0 0.0 0
M  V30 5 C 3.6807 1.2024 0.0 0
M  V30 6 C 2.7026 0.9945 0.0 0
M  V30 7 C 1.732 -0.5 0.0 0
M  V30 8 N 3.9897 2.1534 0.0 0
M  V30 9 C 2.0334 1.7376 0.0 0
M  V30 10 C 0.866 0.0 0.0 0
M  V30 11 C 3.3206 2.8966 0.0 0
M  V30 12 N 2.3424 2.6887 0.0 0
M  V30 13 O 0.866 1.0 0.0 0
M  V30 14 N 0.0 -0.5 0.0 0
M  V30 15 C -0.866 0.0 0.0 0
M  V30 16 C 0.0 -1.4999 0.0 0
M  V30 17 C -1.732 -0.4999 0.0 0
M  V30 18 C -0.866 -1.9999 0.0 0
M  V30 19 N -1.732 -1.4999 0.0 0 VAL=4
M  V30 20 C -2.598 -1.9999 0.0 0
M  V30 END ATOM
M  V30 BEGIN BOND
M  V30 1 1 1 2
M  V30 2 1 2 3
M  V30 3 2 2 4
M  V30 4 1 3 5
M  V30 5 1 4 6
M  V30 6 1 4 7
M  V30 7 1 5 8
M  V30 8 1 6 9
M  V30 9 1 7 10
M  V30 10 2 8 11
M  V30 11 2 9 12
M  V30 12 2 10 13
M  V30 13 1 10 14
M  V30 14 1 14 15
M  V30 15 1 14 16
M  V30 16 1 15 17
M  V30 17 1 16 18
M  V30 18 1 17 19
M  V30 19 1 19 20
M  V30 20 2 5 6
M  V30 21 1 11 12
M  V30 22 1 18 19
M  V30 END BOND
M  V30 END CTAB
M  END
>  <Smiles>
C[NH]1CCN(CC1)C(=O)Cc1c(F)[nH]c2c1cncn2

>  <Name>
SPE_0076

>  <Name_tmp>


>  <Residue Name>
S76

$$$$
SPE_0077
Actelion Java MolfileCreator 2.0

  0  0  0  0  0  0              0 V3000
M  V30 BEGIN CTAB
M  V30 COUNTS 20 22 0 0 0
M  V30 BEGIN ATOM
M  V30 1 F 3.7195 -1.3848 0.0 0
M  V30 2 C 3.5116 -0.4067 0.0 0
M  V30 3 N 4.1807 0.3364 0.0 0
M  V30 4 C 2.598 0.0 0.0 0
M  V30 5 C 3.6807 1.2024 0.0 0
M  V30 6 C 2.7026 0.9945 0.0 0
M  V30 7 C 1.732 -0.5 0.0 0
M  V30 8 N 3.9897 2.1534 0.0 0
M  V30 9 N 2.0334 1.7376 0.0 0
M  V30 10 C 0.866 0.0 0.0 0
M  V30 11 C 3.3206 2.8966 0.0 0
M  V30 12 C 2.3424 2.6887 0.0 0
M  V30 13 O 0.866 1.0 0.0 0
M  V30 14 N 0.0 -0.5 0.0 0
M  V30 15 C -0.866 0.0 0.0 0
M  V30 16 C 0.0 -1.4999 0.0 0
M  V30 17 C -1.732 -0.4999 0.0 0
M  V30 18 C -0.866 -1.9999 0.0 0
M  V30 19 N -1.732 -1.4999 0.0 0 VAL=4
M  V30 20 C -2.598 -1.9999 0.0 0
M  V30 END ATOM
M  V30 BEGIN BOND
M  V30 1 1 1 2
M  V30 2 1 2 3
M  V30 3 2 2 4
M  V30 4 1 3 5
M  V30 5 1 4 6
M  V30 6 1 4 7
M  V30 7 1 5 8
M  V30 8 1 6 9
M  V30 9 1 7 10
M  V30 10 2 8 11
M  V30 11 2 9 12
M  V30 12 2 10 13
M  V30 13 1 10 14
M  V30 14 1 14 15
M  V30 15 1 14 16
M  V30 16 1 15 17
M  V30 17 1 16 18
M  V30 18 1 17 19
M  V30 19 1 19 20
M  V30 20 2 5 6
M  V30 21 1 11 12
M  V30 22 1 18 19
M  V30 END BOND
M  V30 END CTAB
M  END
>  <Smiles>
C[NH]1CCN(CC1)C(=O)Cc1c(F)[nH]c2c1nccn2

>  <Name>
SPE_0077

>  <Name_tmp>


>  <Residue Name>
S77

$$$$
SPE_0080
Actelion Java MolfileCreator 2.0

  0  0  0  0  0  0              0 V3000
M  V30 BEGIN CTAB
M  V30 COUNTS 20 22 0 0 0
M  V30 BEGIN ATOM
M  V30 1 Cl 3.7195 -1.3848 0.0 0
M  V30 2 C 3.5116 -0.4067 0.0 0
M  V30 3 N 4.1807 0.3364 0.0 0
M  V30 4 C 2.598 0.0 0.0 0
M  V30 5 C 3.6807 1.2024 0.0 0
M  V30 6 C 2.7026 0.9945 0.0 0
M  V30 7 C 1.732 -0.5 0.0 0
M  V30 8 N 3.9897 2.1534 0.0 0
M  V30 9 C 2.0334 1.7376 0.0 0
M  V30 10 C 0.866 0.0 0.0 0
M  V30 11 C 3.3206 2.8966 0.0 0
M  V30 12 C 2.3424 2.6887 0.0 0
M  V30 13 O 0.866 1.0 0.0 0
M  V30 14 N 0.0 -0.5 0.0 0
M  V30 15 C -0.866 0.0 0.0 0
M  V30 16 C 0.0 -1.4999 0.0 0
M  V30 17 C -1.732 -0.4999 0.0 0
M  V30 18 C -0.866 -1.9999 0.0 0
M  V30 19 N -1.732 -1.4999 0.0 0 VAL=4
M  V30 20 C -2.598 -1.9999 0.0 0
M  V30 END ATOM
M  V30 BEGIN BOND
M  V30 1 1 1 2
M  V30 2 1 2 3
M  V30 3 2 2 4
M  V30 4 1 3 5
M  V30 5 1 4 6
M  V30 6 1 4 7
M  V30 7 1 5 8
M  V30 8 1 6 9
M  V30 9 1 7 10
M  V30 10 2 8 11
M  V30 11 2 9 12
M  V30 12 2 10 13
M  V30 13 1 10 14
M  V30 14 1 14 15
M  V30 15 1 14 16
M  V30 16 1 15 17
M  V30 17 1 16 18
M  V30 18 1 17 19
M  V30 19 1 19 20
M  V30 20 2 5 6
M  V30 21 1 11 12
M  V30 22 1 18 19
M  V30 END BOND
M  V30 END CTAB
M  END
>  <Smiles>
C[NH]1CCN(CC1)C(=O)Cc1c(Cl)[nH]c2c1cccn2

>  <Name>
SPE_0080

>  <Name_tmp>


>  <Residue Name>
S80

$$$$
SPE_0090
Actelion Java MolfileCreator 2.0

  0  0  0  0  0  0              0 V3000
M  V30 BEGIN CTAB
M  V30 COUNTS 20 22 0 0 0
M  V30 BEGIN ATOM
M  V30 1 Cl 3.7195 -1.3848 0.0 0
M  V30 2 C 3.5116 -0.4067 0.0 0
M  V30 3 N 4.1807 0.3364 0.0 0
M  V30 4 C 2.598 0.0 0.0 0
M  V30 5 C 3.6807 1.2024 0.0 0
M  V30 6 C 2.7026 0.9945 0.0 0
M  V30 7 C 1.732 -0.5 0.0 0
M  V30 8 N 3.9897 2.1534 0.0 0
M  V30 9 C 2.0334 1.7376 0.0 0
M  V30 10 C 0.866 0.0 0.0 0
M  V30 11 C 3.3206 2.8966 0.0 0
M  V30 12 N 2.3424 2.6887 0.0 0
M  V30 13 O 0.866 1.0 0.0 0
M  V30 14 N 0.0 -0.5 0.0 0
M  V30 15 C -0.866 0.0 0.0 0
M  V30 16 C 0.0 -1.4999 0.0 0
M  V30 17 C -1.732 -0.4999 0.0 0
M  V30 18 C -0.866 -1.9999 0.0 0
M  V30 19 N -1.732 -1.4999 0.0 0 VAL=4
M  V30 20 C -2.598 -1.9999 0.0 0
M  V30 END ATOM
M  V30 BEGIN BOND
M  V30 1 1 1 2
M  V30 2 1 2 3
M  V30 3 2 2 4
M  V30 4 1 3 5
M  V30 5 1 4 6
M  V30 6 1 4 7
M  V30 7 1 5 8
M  V30 8 1 6 9
M  V30 9 1 7 10
M  V30 10 2 8 11
M  V30 11 2 9 12
M  V30 12 2 10 13
M  V30 13 1 10 14
M  V30 14 1 14 15
M  V30 15 1 14 16
M  V30 16 1 15 17
M  V30 17 1 16 18
M  V30 18 1 17 19
M  V30 19 1 19 20
M  V30 20 2 5 6
M  V30 21 1 11 12
M  V30 22 1 18 19
M  V30 END BOND
M  V30 END CTAB
M  END
>  <Smiles>
C[NH]1CCN(CC1)C(=O)Cc1c(Cl)[nH]c2c1cncn2

>  <Name>
SPE_0090

>  <Name_tmp>


>  <Residue Name>
S90

$$$$
SPE_0091
Actelion Java MolfileCreator 2.0

  0  0  0  0  0  0              0 V3000
M  V30 BEGIN CTAB
M  V30 COUNTS 20 22 0 0 0
M  V30 BEGIN ATOM
M  V30 1 Cl 3.7195 -1.3848 0.0 0
M  V30 2 C 3.5116 -0.4067 0.0 0
M  V30 3 N 4.1807 0.3364 0.0 0
M  V30 4 C 2.598 0.0 0.0 0
M  V30 5 C 3.6807 1.2024 0.0 0
M  V30 6 C 2.7026 0.9945 0.0 0
M  V30 7 C 1.732 -0.5 0.0 0
M  V30 8 N 3.9897 2.1534 0.0 0
M  V30 9 N 2.0334 1.7376 0.0 0
M  V30 10 C 0.866 0.0 0.0 0
M  V30 11 C 3.3206 2.8966 0.0 0
M  V30 12 C 2.3424 2.6887 0.0 0
M  V30 13 O 0.866 1.0 0.0 0
M  V30 14 N 0.0 -0.5 0.0 0
M  V30 15 C -0.866 0.0 0.0 0
M  V30 16 C 0.0 -1.4999 0.0 0
M  V30 17 C -1.732 -0.4999 0.0 0
M  V30 18 C -0.866 -1.9999 0.0 0
M  V30 19 N -1.732 -1.4999 0.0 0 VAL=4
M  V30 20 C -2.598 -1.9999 0.0 0
M  V30 END ATOM
M  V30 BEGIN BOND
M  V30 1 1 1 2
M  V30 2 1 2 3
M  V30 3 2 2 4
M  V30 4 1 3 5
M  V30 5 1 4 6
M  V30 6 1 4 7
M  V30 7 1 5 8
M  V30 8 1 6 9
M  V30 9 1 7 10
M  V30 10 2 8 11
M  V30 11 2 9 12
M  V30 12 2 10 13
M  V30 13 1 10 14
M  V30 14 1 14 15
M  V30 15 1 14 16
M  V30 16 1 15 17
M  V30 17 1 16 18
M  V30 18 1 17 19
M  V30 19 1 19 20
M  V30 20 2 5 6
M  V30 21 1 11 12
M  V30 22 1 18 19
M  V30 END BOND
M  V30 END CTAB
M  END
>  <Smiles>
C[NH]1CCN(CC1)C(=O)Cc1c(Cl)[nH]c2c1nccn2

>  <Name>
SPE_0091

>  <Name_tmp>


>  <Residue Name>
S91

$$$$
SPE_0081
Actelion Java MolfileCreator 2.0

  0  0  0  0  0  0              0 V3000
M  V30 BEGIN CTAB
M  V30 COUNTS 19 21 0 0 0
M  V30 BEGIN ATOM
M  V30 1 O 2.598 0.0 0.0 0
M  V30 2 C 1.732 -0.5 0.0 0
M  V30 3 N 1.732 -1.5 0.0 0
M  V30 4 N 0.866 0.0 0.0 0
M  V30 5 C 0.866 -1.9999 0.0 0
M  V30 6 C 2.598 -2.0 0.0 0
M  V30 7 C 0.0 -0.5 0.0 0
M  V30 8 C 0.866 -2.9999 0.0 0
M  V30 9 C 2.598 -3.0 0.0 0
M  V30 10 C -0.9135 -0.0932 0.0 0
M  V30 11 C -0.1045 -1.4945 0.0 0
M  V30 12 N 1.732 -3.5 0.0 0 VAL=4
M  V30 13 C -1.5826 -0.8364 0.0 0
M  V30 14 C -1.2225 0.8577 0.0 0
M  V30 15 N -1.0826 -1.7024 0.0 0
M  V30 16 C 1.732 -4.5 0.0 0
M  V30 17 N -2.5608 -0.6284 0.0 0
M  V30 18 C -2.2007 1.0657 0.0 0
M  V30 19 C -2.8698 0.3225 0.0 0
M  V30 END ATOM
M  V30 BEGIN BOND
M  V30 1 2 1 2
M  V30 2 1 2 3
M  V30 3 1 2 4
M  V30 4 1 3 5
M  V30 5 1 3 6
M  V30 6 1 4 7
M  V30 7 1 5 8
M  V30 8 1 6 9
M  V30 9 1 7 10
M  V30 10 2 7 11
M  V30 11 1 8 12
M  V30 12 2 10 13
M  V30 13 1 10 14
M  V30 14 1 11 15
M  V30 15 1 12 16
M  V30 16 1 13 17
M  V30 17 2 14 18
M  V30 18 2 17 19
M  V30 19 1 9 12
M  V30 20 1 13 15
M  V30 21 1 18 19
M  V30 END BOND
M  V30 END CTAB
M  END
>  <Smiles>
C[NH]1CCN(CC1)C(=O)Nc1c[nH]c2c1cccn2

>  <Name>
SPE_0081

>  <Name_tmp>


>  <Residue Name>
S81

$$$$
SPE_0082
Actelion Java MolfileCreator 2.0

  0  0  0  0  0  0              0 V3000
M  V30 BEGIN CTAB
M  V30 COUNTS 19 21 0 0 0
M  V30 BEGIN ATOM
M  V30 1 O 2.598 0.0 0.0 0
M  V30 2 C 1.732 -0.5 0.0 0
M  V30 3 N 1.732 -1.5 0.0 0
M  V30 4 N 0.866 0.0 0.0 0
M  V30 5 C 0.866 -1.9999 0.0 0
M  V30 6 C 2.598 -2.0 0.0 0
M  V30 7 C 0.0 -0.5 0.0 0
M  V30 8 C 0.866 -2.9999 0.0 0
M  V30 9 C 2.598 -3.0 0.0 0
M  V30 10 C -0.9135 -0.0932 0.0 0
M  V30 11 C -0.1045 -1.4945 0.0 0
M  V30 12 N 1.732 -3.5 0.0 0 VAL=4
M  V30 13 C -1.5826 -0.8364 0.0 0
M  V30 14 C -1.2225 0.8577 0.0 0
M  V30 15 N -1.0826 -1.7024 0.0 0
M  V30 16 C 1.732 -4.5 0.0 0
M  V30 17 N -2.5608 -0.6284 0.0 0
M  V30 18 N -2.2007 1.0657 0.0 0
M  V30 19 C -2.8698 0.3225 0.0 0
M  V30 END ATOM
M  V30 BEGIN BOND
M  V30 1 2 1 2
M  V30 2 1 2 3
M  V30 3 1 2 4
M  V30 4 1 3 5
M  V30 5 1 3 6
M  V30 6 1 4 7
M  V30 7 1 5 8
M  V30 8 1 6 9
M  V30 9 1 7 10
M  V30 10 2 7 11
M  V30 11 1 8 12
M  V30 12 2 10 13
M  V30 13 1 10 14
M  V30 14 1 11 15
M  V30 15 1 12 16
M  V30 16 1 13 17
M  V30 17 2 14 18
M  V30 18 2 17 19
M  V30 19 1 9 12
M  V30 20 1 13 15
M  V30 21 1 18 19
M  V30 END BOND
M  V30 END CTAB
M  END
>  <Smiles>
C[NH]1CCN(CC1)C(=O)Nc1c[nH]c2c1cncn2

>  <Name>
SPE_0082

>  <Name_tmp>


>  <Residue Name>
S82

$$$$
SPE_0083
Actelion Java MolfileCreator 2.0

  0  0  0  0  0  0              0 V3000
M  V30 BEGIN CTAB
M  V30 COUNTS 19 21 0 0 0
M  V30 BEGIN ATOM
M  V30 1 O 2.598 0.0 0.0 0
M  V30 2 C 1.732 -0.5 0.0 0
M  V30 3 N 1.732 -1.5 0.0 0
M  V30 4 N 0.866 0.0 0.0 0
M  V30 5 C 0.866 -1.9999 0.0 0
M  V30 6 C 2.598 -2.0 0.0 0
M  V30 7 C 0.0 -0.5 0.0 0
M  V30 8 C 0.866 -2.9999 0.0 0
M  V30 9 C 2.598 -3.0 0.0 0
M  V30 10 C -0.9135 -0.0932 0.0 0
M  V30 11 C -0.1045 -1.4945 0.0 0
M  V30 12 N 1.732 -3.5 0.0 0 VAL=4
M  V30 13 N -1.2225 0.8577 0.0 0
M  V30 14 C -1.5826 -0.8364 0.0 0
M  V30 15 N -1.0826 -1.7024 0.0 0
M  V30 16 C 1.732 -4.5 0.0 0
M  V30 17 C -2.2007 1.0657 0.0 0
M  V30 18 N -2.5608 -0.6284 0.0 0
M  V30 19 C -2.8698 0.3225 0.0 0
M  V30 END ATOM
M  V30 BEGIN BOND
M  V30 1 2 1 2
M  V30 2 1 2 3
M  V30 3 1 2 4
M  V30 4 1 3 5
M  V30 5 1 3 6
M  V30 6 1 4 7
M  V30 7 1 5 8
M  V30 8 1 6 9
M  V30 9 1 7 10
M  V30 10 2 7 11
M  V30 11 1 8 12
M  V30 12 2 10 13
M  V30 13 1 10 14
M  V30 14 1 11 15
M  V30 15 1 12 16
M  V30 16 1 13 17
M  V30 17 2 14 18
M  V30 18 2 17 19
M  V30 19 1 9 12
M  V30 20 1 14 15
M  V30 21 1 18 19
M  V30 END BOND
M  V30 END CTAB
M  END
>  <Smiles>
C[NH]1CCN(CC1)C(=O)Nc1c[nH]c2c1nccn2

>  <Name>
SPE_0083

>  <Name_tmp>


>  <Residue Name>
S83

$$$$
SPE_0084
Actelion Java MolfileCreator 2.0

  0  0  0  0  0  0              0 V3000
M  V30 BEGIN CTAB
M  V30 COUNTS 20 22 0 0 0
M  V30 BEGIN ATOM
M  V30 1 F 3.7195 -1.3848 0.0 0
M  V30 2 C 3.5116 -0.4067 0.0 0
M  V30 3 N 4.1807 0.3364 0.0 0
M  V30 4 C 2.598 0.0 0.0 0
M  V30 5 C 3.6807 1.2024 0.0 0
M  V30 6 N 1.732 -0.5 0.0 0
M  V30 7 C 2.7026 0.9945 0.0 0
M  V30 8 N 3.9897 2.1534 0.0 0
M  V30 9 C 0.866 0.0 0.0 0
M  V30 10 C 2.0334 1.7376 0.0 0
M  V30 11 C 3.3206 2.8966 0.0 0
M  V30 12 O 0.866 1.0 0.0 0
M  V30 13 N 0.0 -0.5 0.0 0
M  V30 14 C 2.3424 2.6887 0.0 0
M  V30 15 C -0.866 0.0 0.0 0
M  V30 16 C 0.0 -1.4999 0.0 0
M  V30 17 C -1.732 -0.4999 0.0 0
M  V30 18 C -0.866 -1.9999 0.0 0
M  V30 19 N -1.732 -1.4999 0.0 0 VAL=4
M  V30 20 C -2.598 -1.9999 0.0 0
M  V30 END ATOM
M  V30 BEGIN BOND
M  V30 1 1 1 2
M  V30 2 1 2 3
M  V30 3 2 2 4
M  V30 4 1 3 5
M  V30 5 1 4 6
M  V30 6 1 4 7
M  V30 7 1 5 8
M  V30 8 1 6 9
M  V30 9 1 7 10
M  V30 10 2 8 11
M  V30 11 2 9 12
M  V30 12 1 9 13
M  V30 13 2 10 14
M  V30 14 1 13 15
M  V30 15 1 13 16
M  V30 16 1 15 17
M  V30 17 1 16 18
M  V30 18 1 17 19
M  V30 19 1 19 20
M  V30 20 2 5 7
M  V30 21 1 11 14
M  V30 22 1 18 19
M  V30 END BOND
M  V30 END CTAB
M  END
>  <Smiles>
C[NH]1CCN(CC1)C(=O)Nc1c(F)[nH]c2c1cccn2

>  <Name>
SPE_0084

>  <Name_tmp>


>  <Residue Name>
S84

$$$$
SPE_0085
Actelion Java MolfileCreator 2.0

  0  0  0  0  0  0              0 V3000
M  V30 BEGIN CTAB
M  V30 COUNTS 20 22 0 0 0
M  V30 BEGIN ATOM
M  V30 1 F 3.7195 -1.3848 0.0 0
M  V30 2 C 3.5116 -0.4067 0.0 0
M  V30 3 N 4.1807 0.3364 0.0 0
M  V30 4 C 2.598 0.0 0.0 0
M  V30 5 C 3.6807 1.2024 0.0 0
M  V30 6 N 1.732 -0.5 0.0 0
M  V30 7 C 2.7026 0.9945 0.0 0
M  V30 8 N 3.9897 2.1534 0.0 0
M  V30 9 C 0.866 0.0 0.0 0
M  V30 10 C 2.0334 1.7376 0.0 0
M  V30 11 C 3.3206 2.8966 0.0 0
M  V30 12 O 0.866 1.0 0.0 0
M  V30 13 N 0.0 -0.5 0.0 0
M  V30 14 N 2.3424 2.6887 0.0 0
M  V30 15 C -0.866 0.0 0.0 0
M  V30 16 C 0.0 -1.4999 0.0 0
M  V30 17 C -1.732 -0.4999 0.0 0
M  V30 18 C -0.866 -1.9999 0.0 0
M  V30 19 N -1.732 -1.4999 0.0 0 VAL=4
M  V30 20 C -2.598 -1.9999 0.0 0
M  V30 END ATOM
M  V30 BEGIN BOND
M  V30 1 1 1 2
M  V30 2 1 2 3
M  V30 3 2 2 4
M  V30 4 1 3 5
M  V30 5 1 4 6
M  V30 6 1 4 7
M  V30 7 1 5 8
M  V30 8 1 6 9
M  V30 9 1 7 10
M  V30 10 2 8 11
M  V30 11 2 9 12
M  V30 12 1 9 13
M  V30 13 2 10 14
M  V30 14 1 13 15
M  V30 15 1 13 16
M  V30 16 1 15 17
M  V30 17 1 16 18
M  V30 18 1 17 19
M  V30 19 1 19 20
M  V30 20 2 5 7
M  V30 21 1 11 14
M  V30 22 1 18 19
M  V30 END BOND
M  V30 END CTAB
M  END
>  <Smiles>
C[NH]1CCN(CC1)C(=O)Nc1c(F)[nH]c2c1cncn2

>  <Name>
SPE_0085

>  <Name_tmp>


>  <Residue Name>
S85

$$$$
SPE_0086
Actelion Java MolfileCreator 2.0

  0  0  0  0  0  0              0 V3000
M  V30 BEGIN CTAB
M  V30 COUNTS 20 22 0 0 0
M  V30 BEGIN ATOM
M  V30 1 F 3.7195 -1.3848 0.0 0
M  V30 2 C 3.5116 -0.4067 0.0 0
M  V30 3 N 4.1807 0.3364 0.0 0
M  V30 4 C 2.598 0.0 0.0 0
M  V30 5 C 3.6807 1.2024 0.0 0
M  V30 6 N 1.732 -0.5 0.0 0
M  V30 7 C 2.7026 0.9945 0.0 0
M  V30 8 N 3.9897 2.1534 0.0 0
M  V30 9 C 0.866 0.0 0.0 0
M  V30 10 N 2.0334 1.7376 0.0 0
M  V30 11 C 3.3206 2.8966 0.0 0
M  V30 12 O 0.866 1.0 0.0 0
M  V30 13 N 0.0 -0.5 0.0 0
M  V30 14 C 2.3424 2.6887 0.0 0
M  V30 15 C -0.866 0.0 0.0 0
M  V30 16 C 0.0 -1.4999 0.0 0
M  V30 17 C -1.732 -0.4999 0.0 0
M  V30 18 C -0.866 -1.9999 0.0 0
M  V30 19 N -1.732 -1.4999 0.0 0 VAL=4
M  V30 20 C -2.598 -1.9999 0.0 0
M  V30 END ATOM
M  V30 BEGIN BOND
M  V30 1 1 1 2
M  V30 2 1 2 3
M  V30 3 2 2 4
M  V30 4 1 3 5
M  V30 5 1 4 6
M  V30 6 1 4 7
M  V30 7 1 5 8
M  V30 8 1 6 9
M  V30 9 1 7 10
M  V30 10 2 8 11
M  V30 11 2 9 12
M  V30 12 1 9 13
M  V30 13 2 10 14
M  V30 14 1 13 15
M  V30 15 1 13 16
M  V30 16 1 15 17
M  V30 17 1 16 18
M  V30 18 1 17 19
M  V30 19 1 19 20
M  V30 20 2 5 7
M  V30 21 1 11 14
M  V30 22 1 18 19
M  V30 END BOND
M  V30 END CTAB
M  END
>  <Smiles>
C[NH]1CCN(CC1)C(=O)Nc1c(F)[nH]c2c1nccn2

>  <Name>
SPE_0086

>  <Name_tmp>


>  <Residue Name>
S86

$$$$
SPE_0087
Actelion Java MolfileCreator 2.0

  0  0  0  0  0  0              0 V3000
M  V30 BEGIN CTAB
M  V30 COUNTS 20 22 0 0 0
M  V30 BEGIN ATOM
M  V30 1 Cl 3.7195 -1.3848 0.0 0
M  V30 2 C 3.5116 -0.4067 0.0 0
M  V30 3 N 4.1807 0.3364 0.0 0
M  V30 4 C 2.598 0.0 0.0 0
M  V30 5 C 3.6807 1.2024 0.0 0
M  V30 6 N 1.732 -0.5 0.0 0
M  V30 7 C 2.7026 0.9945 0.0 0
M  V30 8 N 3.9897 2.1534 0.0 0
M  V30 9 C 0.866 0.0 0.0 0
M  V30 10 C 2.0334 1.7376 0.0 0
M  V30 11 C 3.3206 2.8966 0.0 0
M  V30 12 O 0.866 1.0 0.0 0
M  V30 13 N 0.0 -0.5 0.0 0
M  V30 14 N 2.3424 2.6887 0.0 0
M  V30 15 C -0.866 0.0 0.0 0
M  V30 16 C 0.0 -1.4999 0.0 0
M  V30 17 C -1.732 -0.4999 0.0 0
M  V30 18 C -0.866 -1.9999 0.0 0
M  V30 19 N -1.732 -1.4999 0.0 0 VAL=4
M  V30 20 C -2.598 -1.9999 0.0 0
M  V30 END ATOM
M  V30 BEGIN BOND
M  V30 1 1 1 2
M  V30 2 1 2 3
M  V30 3 2 2 4
M  V30 4 1 3 5
M  V30 5 1 4 6
M  V30 6 1 4 7
M  V30 7 1 5 8
M  V30 8 1 6 9
M  V30 9 1 7 10
M  V30 10 2 8 11
M  V30 11 2 9 12
M  V30 12 1 9 13
M  V30 13 2 10 14
M  V30 14 1 13 15
M  V30 15 1 13 16
M  V30 16 1 15 17
M  V30 17 1 16 18
M  V30 18 1 17 19
M  V30 19 1 19 20
M  V30 20 2 5 7
M  V30 21 1 11 14
M  V30 22 1 18 19
M  V30 END BOND
M  V30 END CTAB
M  END
>  <Smiles>
C[NH]1CCN(CC1)C(=O)Nc1c(Cl)[nH]c2c1cncn2

>  <Name>
SPE_0087

>  <Name_tmp>


>  <Residue Name>
S87

$$$$
SPE_0088
Actelion Java MolfileCreator 2.0

  0  0  0  0  0  0              0 V3000
M  V30 BEGIN CTAB
M  V30 COUNTS 20 22 0 0 0
M  V30 BEGIN ATOM
M  V30 1 Cl 3.7195 -1.3848 0.0 0
M  V30 2 C 3.5116 -0.4067 0.0 0
M  V30 3 N 4.1807 0.3364 0.0 0
M  V30 4 C 2.598 0.0 0.0 0
M  V30 5 C 3.6807 1.2024 0.0 0
M  V30 6 N 1.732 -0.5 0.0 0
M  V30 7 C 2.7026 0.9945 0.0 0
M  V30 8 N 3.9897 2.1534 0.0 0
M  V30 9 C 0.866 0.0 0.0 0
M  V30 10 N 2.0334 1.7376 0.0 0
M  V30 11 C 3.3206 2.8966 0.0 0
M  V30 12 O 0.866 1.0 0.0 0
M  V30 13 N 0.0 -0.5 0.0 0
M  V30 14 C 2.3424 2.6887 0.0 0
M  V30 15 C -0.866 0.0 0.0 0
M  V30 16 C 0.0 -1.4999 0.0 0
M  V30 17 C -1.732 -0.4999 0.0 0
M  V30 18 C -0.866 -1.9999 0.0 0
M  V30 19 N -1.732 -1.4999 0.0 0 VAL=4
M  V30 20 C -2.598 -1.9999 0.0 0
M  V30 END ATOM
M  V30 BEGIN BOND
M  V30 1 1 1 2
M  V30 2 1 2 3
M  V30 3 2 2 4
M  V30 4 1 3 5
M  V30 5 1 4 6
M  V30 6 1 4 7
M  V30 7 1 5 8
M  V30 8 1 6 9
M  V30 9 1 7 10
M  V30 10 2 8 11
M  V30 11 2 9 12
M  V30 12 1 9 13
M  V30 13 2 10 14
M  V30 14 1 13 15
M  V30 15 1 13 16
M  V30 16 1 15 17
M  V30 17 1 16 18
M  V30 18 1 17 19
M  V30 19 1 19 20
M  V30 20 2 5 7
M  V30 21 1 11 14
M  V30 22 1 18 19
M  V30 END BOND
M  V30 END CTAB
M  END
>  <Smiles>
C[NH]1CCN(CC1)C(=O)Nc1c(Cl)[nH]c2c1nccn2

>  <Name>
SPE_0088

>  <Name_tmp>


>  <Residue Name>
S88

$$$$
SPE_0089
Actelion Java MolfileCreator 2.0

  0  0  0  0  0  0              0 V3000
M  V30 BEGIN CTAB
M  V30 COUNTS 20 22 0 0 0
M  V30 BEGIN ATOM
M  V30 1 Cl 3.7195 -1.3848 0.0 0
M  V30 2 C 3.5116 -0.4067 0.0 0
M  V30 3 N 4.1807 0.3364 0.0 0
M  V30 4 C 2.598 0.0 0.0 0
M  V30 5 C 3.6807 1.2024 0.0 0
M  V30 6 N 1.732 -0.5 0.0 0
M  V30 7 C 2.7026 0.9945 0.0 0
M  V30 8 N 3.9897 2.1534 0.0 0
M  V30 9 C 0.866 0.0 0.0 0
M  V30 10 C 2.0334 1.7376 0.0 0
M  V30 11 C 3.3206 2.8966 0.0 0
M  V30 12 O 0.866 1.0 0.0 0
M  V30 13 N 0.0 -0.5 0.0 0
M  V30 14 C 2.3424 2.6887 0.0 0
M  V30 15 C -0.866 0.0 0.0 0
M  V30 16 C 0.0 -1.4999 0.0 0
M  V30 17 C -1.732 -0.4999 0.0 0
M  V30 18 C -0.866 -1.9999 0.0 0
M  V30 19 N -1.732 -1.4999 0.0 0 VAL=4
M  V30 20 C -2.598 -1.9999 0.0 0
M  V30 END ATOM
M  V30 BEGIN BOND
M  V30 1 1 1 2
M  V30 2 1 2 3
M  V30 3 2 2 4
M  V30 4 1 3 5
M  V30 5 1 4 6
M  V30 6 1 4 7
M  V30 7 1 5 8
M  V30 8 1 6 9
M  V30 9 1 7 10
M  V30 10 2 8 11
M  V30 11 2 9 12
M  V30 12 1 9 13
M  V30 13 2 10 14
M  V30 14 1 13 15
M  V30 15 1 13 16
M  V30 16 1 15 17
M  V30 17 1 16 18
M  V30 18 1 17 19
M  V30 19 1 19 20
M  V30 20 2 5 7
M  V30 21 1 11 14
M  V30 22 1 18 19
M  V30 END BOND
M  V30 END CTAB
M  END
>  <Smiles>
C[NH]1CCN(CC1)C(=O)Nc1c(Cl)[nH]c2c1cccn2

>  <Name>
SPE_0089

>  <Name_tmp>


>  <Residue Name>
S89

$$$$
SPE_0078
Actelion Java MolfileCreator 2.0

  0  0  0  0  0  0              0 V3000
M  V30 BEGIN CTAB
M  V30 COUNTS 17 18 0 0 0
M  V30 BEGIN ATOM
M  V30 1 Cl 2.598 -1.9999 0.0 0
M  V30 2 C 3.4641 -1.4999 0.0 0
M  V30 3 N 4.3301 -1.9999 0.0 0
M  V30 4 C 3.4641 -0.5 0.0 0
M  V30 5 C 5.1961 -1.4999 0.0 0
M  V30 6 N 2.598 0.0 0.0 0
M  V30 7 C 4.3301 0.0 0.0 0
M  V30 8 C 5.1961 -0.4999 0.0 0
M  V30 9 C 1.732 -0.5 0.0 0
M  V30 10 O 1.732 -1.5 0.0 0
M  V30 11 N 0.866 0.0 0.0 0
M  V30 12 C 0.0 -0.5 0.0 0
M  V30 13 C -0.866 0.0 0.0 0
M  V30 14 C 0.0 -1.4999 0.0 0
M  V30 15 C -1.732 -0.4999 0.0 0
M  V30 16 C -0.866 -1.9999 0.0 0
M  V30 17 C -1.732 -1.4999 0.0 0
M  V30 END ATOM
M  V30 BEGIN BOND
M  V30 1 1 1 2
M  V30 2 2 2 3
M  V30 3 1 2 4
M  V30 4 1 3 5
M  V30 5 1 4 6
M  V30 6 2 4 7
M  V30 7 2 5 8
M  V30 8 1 6 9
M  V30 9 2 9 10
M  V30 10 1 9 11
M  V30 11 1 11 12
M  V30 12 2 12 13
M  V30 13 1 12 14
M  V30 14 1 13 15
M  V30 15 2 14 16
M  V30 16 2 15 17
M  V30 17 1 7 8
M  V30 18 1 16 17
M  V30 END BOND
M  V30 END CTAB
M  END
>  <Smiles>
O=C(Nc1cccnc1Cl)Nc1ccccc1

>  <Name>
SPE_0078

>  <Name_tmp>


>  <Residue Name>
S78

$$$$
SPE_0079
Actelion Java MolfileCreator 2.0

  0  0  0  0  0  0              0 V3000
M  V30 BEGIN CTAB
M  V30 COUNTS 17 18 0 0 0
M  V30 BEGIN ATOM
M  V30 1 Cl 2.598 -1.9999 0.0 0
M  V30 2 C 3.4641 -1.4999 0.0 0
M  V30 3 N 4.3301 -1.9999 0.0 0
M  V30 4 C 3.4641 -0.5 0.0 0
M  V30 5 C 5.1961 -1.4999 0.0 0
M  V30 6 N 2.598 0.0 0.0 0
M  V30 7 C 4.3301 0.0 0.0 0
M  V30 8 C 5.1961 -0.4999 0.0 0
M  V30 9 C 1.732 -0.5 0.0 0
M  V30 10 O 1.732 -1.5 0.0 0
M  V30 11 C 0.866 0.0 0.0 0
M  V30 12 C 0.0 -0.5 0.0 0
M  V30 13 C -0.866 0.0 0.0 0
M  V30 14 C 0.0 -1.4999 0.0 0
M  V30 15 C -1.732 -0.4999 0.0 0
M  V30 16 C -0.866 -1.9999 0.0 0
M  V30 17 C -1.732 -1.4999 0.0 0
M  V30 END ATOM
M  V30 BEGIN BOND
M  V30 1 1 1 2
M  V30 2 2 2 3
M  V30 3 1 2 4
M  V30 4 1 3 5
M  V30 5 1 4 6
M  V30 6 2 4 7
M  V30 7 2 5 8
M  V30 8 1 6 9
M  V30 9 2 9 10
M  V30 10 1 9 11
M  V30 11 1 11 12
M  V30 12 1 12 13
M  V30 13 1 12 14
M  V30 14 1 13 15
M  V30 15 1 14 16
M  V30 16 1 15 17
M  V30 17 1 7 8
M  V30 18 1 16 17
M  V30 END BOND
M  V30 END CTAB
M  END
>  <Smiles>
O=C(Nc1cccnc1Cl)CC1CCCCC1

>  <Name>
SPE_0079

>  <Name_tmp>


>  <Residue Name>
S79

$$$$
SPE_0092
Actelion Java MolfileCreator 2.0

  0  0  0  0  0  0              0 V3000
M  V30 BEGIN CTAB
M  V30 COUNTS 18 19 0 0 0
M  V30 BEGIN ATOM
M  V30 1 Cl 2.598 -1.9999 0.0 0
M  V30 2 C 3.4641 -1.4999 0.0 0
M  V30 3 N 4.3301 -1.9999 0.0 0
M  V30 4 C 3.4641 -0.5 0.0 0
M  V30 5 C 5.1961 -1.4999 0.0 0
M  V30 6 N 2.598 0.0 0.0 0
M  V30 7 C 4.3301 0.0 0.0 0
M  V30 8 C 5.1961 -0.4999 0.0 0
M  V30 9 C 1.732 -0.5 0.0 0
M  V30 10 N 6.0621 0.0 0.0 0
M  V30 11 O 1.732 -1.5 0.0 0
M  V30 12 N 0.866 0.0 0.0 0
M  V30 13 C 0.0 -0.5 0.0 0
M  V30 14 C -0.866 0.0 0.0 0
M  V30 15 C 0.0 -1.4999 0.0 0
M  V30 16 C -1.732 -0.4999 0.0 0
M  V30 17 C -0.866 -1.9999 0.0 0
M  V30 18 C -1.732 -1.4999 0.0 0
M  V30 END ATOM
M  V30 BEGIN BOND
M  V30 1 1 1 2
M  V30 2 2 2 3
M  V30 3 1 2 4
M  V30 4 1 3 5
M  V30 5 1 4 6
M  V30 6 2 4 7
M  V30 7 2 5 8
M  V30 8 1 6 9
M  V30 9 1 8 10
M  V30 10 2 9 11
M  V30 11 1 9 12
M  V30 12 1 12 13
M  V30 13 2 13 14
M  V30 14 1 13 15
M  V30 15 1 14 16
M  V30 16 2 15 17
M  V30 17 2 16 18
M  V30 18 1 7 8
M  V30 19 1 17 18
M  V30 END BOND
M  V30 END CTAB
M  END
>  <Smiles>
O=C(Nc1cc(N)cnc1Cl)Nc1ccccc1

>  <Name>
SPE_0092

>  <Name_tmp>


>  <Residue Name>
S92

$$$$
SPE_0093
Actelion Java MolfileCreator 2.0

  0  0  0  0  0  0              0 V3000
M  V30 BEGIN CTAB
M  V30 COUNTS 19 20 0 0 0
M  V30 BEGIN ATOM
M  V30 1 Cl 2.598 -1.9999 0.0 0
M  V30 2 C 3.4641 -1.4999 0.0 0
M  V30 3 N 4.3301 -1.9999 0.0 0
M  V30 4 C 3.4641 -0.5 0.0 0
M  V30 5 C 5.1961 -1.4999 0.0 0
M  V30 6 N 2.598 0.0 0.0 0
M  V30 7 C 4.3301 0.0 0.0 0
M  V30 8 C 5.1961 -0.4999 0.0 0
M  V30 9 C 1.732 -0.5 0.0 0
M  V30 10 N 6.0621 0.0 0.0 0
M  V30 11 O 1.732 -1.5 0.0 0
M  V30 12 N 0.866 0.0 0.0 0
M  V30 13 C 6.0621 1.0 0.0 0
M  V30 14 C 0.0 -0.5 0.0 0
M  V30 15 C -0.866 0.0 0.0 0
M  V30 16 C 0.0 -1.4999 0.0 0
M  V30 17 C -1.732 -0.4999 0.0 0
M  V30 18 C -0.866 -1.9999 0.0 0
M  V30 19 C -1.732 -1.4999 0.0 0
M  V30 END ATOM
M  V30 BEGIN BOND
M  V30 1 1 1 2
M  V30 2 2 2 3
M  V30 3 1 2 4
M  V30 4 1 3 5
M  V30 5 1 4 6
M  V30 6 2 4 7
M  V30 7 2 5 8
M  V30 8 1 6 9
M  V30 9 1 8 10
M  V30 10 2 9 11
M  V30 11 1 9 12
M  V30 12 1 10 13
M  V30 13 1 12 14
M  V30 14 2 14 15
M  V30 15 1 14 16
M  V30 16 1 15 17
M  V30 17 2 16 18
M  V30 18 2 17 19
M  V30 19 1 7 8
M  V30 20 1 18 19
M  V30 END BOND
M  V30 END CTAB
M  END
>  <Smiles>
CNc1cnc(c(c1)NC(=O)Nc1ccccc1)Cl

>  <Name>
SPE_0093

>  <Name_tmp>


>  <Residue Name>
S93

$$$$
SPE_0094
Actelion Java MolfileCreator 2.0

  0  0  0  0  0  0              0 V3000
M  V30 BEGIN CTAB
M  V30 COUNTS 20 21 0 0 0
M  V30 BEGIN ATOM
M  V30 1 Cl 2.598 -1.9999 0.0 0
M  V30 2 C 3.4641 -1.4999 0.0 0
M  V30 3 N 4.3301 -1.9999 0.0 0
M  V30 4 C 3.4641 -0.5 0.0 0
M  V30 5 C 5.1961 -1.4999 0.0 0
M  V30 6 N 2.598 0.0 0.0 0
M  V30 7 C 4.3301 0.0 0.0 0
M  V30 8 C 5.1961 -0.4999 0.0 0
M  V30 9 C 1.732 -0.5 0.0 0
M  V30 10 N 6.0621 0.0 0.0 0
M  V30 11 O 1.732 -1.5 0.0 0
M  V30 12 N 0.866 0.0 0.0 0
M  V30 13 C 6.9282 -0.4999 0.0 0
M  V30 14 C 6.0621 1.0 0.0 0
M  V30 15 C 0.0 -0.5 0.0 0
M  V30 16 C -0.866 0.0 0.0 0
M  V30 17 C 0.0 -1.4999 0.0 0
M  V30 18 C -1.732 -0.4999 0.0 0
M  V30 19 C -0.866 -1.9999 0.0 0
M  V30 20 C -1.732 -1.4999 0.0 0
M  V30 END ATOM
M  V30 BEGIN BOND
M  V30 1 1 1 2
M  V30 2 2 2 3
M  V30 3 1 2 4
M  V30 4 1 3 5
M  V30 5 1 4 6
M  V30 6 2 4 7
M  V30 7 2 5 8
M  V30 8 1 6 9
M  V30 9 1 8 10
M  V30 10 2 9 11
M  V30 11 1 9 12
M  V30 12 1 10 13
M  V30 13 1 10 14
M  V30 14 1 12 15
M  V30 15 2 15 16
M  V30 16 1 15 17
M  V30 17 1 16 18
M  V30 18 2 17 19
M  V30 19 2 18 20
M  V30 20 1 7 8
M  V30 21 1 19 20
M  V30 END BOND
M  V30 END CTAB
M  END
>  <Smiles>
O=C(Nc1cc(cnc1Cl)N(C)C)Nc1ccccc1

>  <Name>
SPE_0094

>  <Name_tmp>


>  <Residue Name>
S94

$$$$
SPE_0095
Actelion Java MolfileCreator 2.0

  0  0  0  0  0  0              0 V3000
M  V30 BEGIN CTAB
M  V30 COUNTS 21 23 0 0 0
M  V30 BEGIN ATOM
M  V30 1 Cl 2.598 -1.9999 0.0 0
M  V30 2 C 3.4641 -1.4999 0.0 0
M  V30 3 N 4.3301 -1.9999 0.0 0
M  V30 4 C 3.4641 -0.5 0.0 0
M  V30 5 C 5.1961 -1.4999 0.0 0
M  V30 6 N 2.598 0.0 0.0 0
M  V30 7 C 4.3301 0.0 0.0 0
M  V30 8 C 5.1961 -0.4999 0.0 0
M  V30 9 C 1.732 -0.5 0.0 0
M  V30 10 C 4.3301 0.9999 0.0 0
M  V30 11 N 6.0621 0.0 0.0 0
M  V30 12 O 1.732 -1.5 0.0 0
M  V30 13 N 0.866 0.0 0.0 0
M  V30 14 N 5.1961 1.5 0.0 0
M  V30 15 C 6.0621 1.0 0.0 0
M  V30 16 C 0.0 -0.5 0.0 0
M  V30 17 C -0.866 0.0 0.0 0
M  V30 18 C 0.0 -1.4999 0.0 0
M  V30 19 C -1.732 -0.4999 0.0 0
M  V30 20 C -0.866 -1.9999 0.0 0
M  V30 21 C -1.732 -1.4999 0.0 0
M  V30 END ATOM
M  V30 BEGIN BOND
M  V30 1 1 1 2
M  V30 2 1 2 3
M  V30 3 2 2 4
M  V30 4 2 3 5
M  V30 5 1 4 6
M  V30 6 1 4 7
M  V30 7 1 5 8
M  V30 8 1 6 9
M  V30 9 2 7 10
M  V30 10 2 8 11
M  V30 11 2 9 12
M  V30 12 1 9 13
M  V30 13 1 10 14
M  V30 14 1 11 15
M  V30 15 1 13 16
M  V30 16 2 16 17
M  V30 17 1 16 18
M  V30 18 1 17 19
M  V30 19 2 18 20
M  V30 20 2 19 21
M  V30 21 1 7 8
M  V30 22 2 14 15
M  V30 23 1 20 21
M  V30 END BOND
M  V30 END CTAB
M  END
>  <Smiles>
O=C(Nc1c(Cl)ncc2c1cncn2)Nc1ccccc1

>  <Name>
SPE_0095

>  <Name_tmp>


>  <Residue Name>
S95

$$$$
SPE_0096
Actelion Java MolfileCreator 2.0

  0  0  0  0  0  0              0 V3000
M  V30 BEGIN CTAB
M  V30 COUNTS 21 23 0 0 0
M  V30 BEGIN ATOM
M  V30 1 Cl 2.598 -1.9999 0.0 0
M  V30 2 C 3.4641 -1.4999 0.0 0
M  V30 3 N 4.3301 -1.9999 0.0 0
M  V30 4 C 3.4641 -0.5 0.0 0
M  V30 5 C 5.1961 -1.4999 0.0 0
M  V30 6 N 2.598 0.0 0.0 0
M  V30 7 C 4.3301 0.0 0.0 0
M  V30 8 C 5.1961 -0.4999 0.0 0
M  V30 9 C 1.732 -0.5 0.0 0
M  V30 10 C 4.3301 0.9999 0.0 0
M  V30 11 N 6.0621 0.0 0.0 0
M  V30 12 O 1.732 -1.5 0.0 0
M  V30 13 N 0.866 0.0 0.0 0
M  V30 14 C 5.1961 1.5 0.0 0
M  V30 15 C 6.0621 1.0 0.0 0
M  V30 16 C 0.0 -0.5 0.0 0
M  V30 17 C -0.866 0.0 0.0 0
M  V30 18 C 0.0 -1.4999 0.0 0
M  V30 19 C -1.732 -0.4999 0.0 0
M  V30 20 C -0.866 -1.9999 0.0 0
M  V30 21 C -1.732 -1.4999 0.0 0
M  V30 END ATOM
M  V30 BEGIN BOND
M  V30 1 1 1 2
M  V30 2 1 2 3
M  V30 3 2 2 4
M  V30 4 2 3 5
M  V30 5 1 4 6
M  V30 6 1 4 7
M  V30 7 1 5 8
M  V30 8 1 6 9
M  V30 9 2 7 10
M  V30 10 2 8 11
M  V30 11 2 9 12
M  V30 12 1 9 13
M  V30 13 1 10 14
M  V30 14 1 11 15
M  V30 15 1 13 16
M  V30 16 2 16 17
M  V30 17 1 16 18
M  V30 18 1 17 19
M  V30 19 2 18 20
M  V30 20 2 19 21
M  V30 21 1 7 8
M  V30 22 2 14 15
M  V30 23 1 20 21
M  V30 END BOND
M  V30 END CTAB
M  END
>  <Smiles>
O=C(Nc1c(Cl)ncc2c1cccn2)Nc1ccccc1

>  <Name>
SPE_0096

>  <Name_tmp>


>  <Residue Name>
S96

$$$$
SPE_0097
Actelion Java MolfileCreator 2.0

  0  0  0  0  0  0              0 V3000
M  V30 BEGIN CTAB
M  V30 COUNTS 20 22 0 0 0
M  V30 BEGIN ATOM
M  V30 1 Cl 2.598 -1.9999 0.0 0
M  V30 2 C 3.4641 -1.4999 0.0 0
M  V30 3 N 4.3301 -1.9999 0.0 0
M  V30 4 C 3.4641 -0.5 0.0 0
M  V30 5 C 5.1961 -1.4999 0.0 0
M  V30 6 N 2.598 0.0 0.0 0
M  V30 7 C 4.3301 0.0 0.0 0
M  V30 8 C 5.1961 -0.4999 0.0 0
M  V30 9 C 1.732 -0.5 0.0 0
M  V30 10 C 4.538 0.9781 0.0 0
M  V30 11 N 5.9392 0.1691 0.0 0
M  V30 12 O 1.732 -1.5 0.0 0
M  V30 13 N 0.866 0.0 0.0 0
M  V30 14 C 5.5325 1.0826 0.0 0
M  V30 15 C 0.0 -0.5 0.0 0
M  V30 16 C -0.866 0.0 0.0 0
M  V30 17 C 0.0 -1.4999 0.0 0
M  V30 18 C -1.732 -0.4999 0.0 0
M  V30 19 C -0.866 -1.9999 0.0 0
M  V30 20 C -1.732 -1.4999 0.0 0
M  V30 END ATOM
M  V30 BEGIN BOND
M  V30 1 1 1 2
M  V30 2 2 2 3
M  V30 3 1 2 4
M  V30 4 1 3 5
M  V30 5 1 4 6
M  V30 6 2 4 7
M  V30 7 2 5 8
M  V30 8 1 6 9
M  V30 9 1 7 10
M  V30 10 1 8 11
M  V30 11 2 9 12
M  V30 12 1 9 13
M  V30 13 2 10 14
M  V30 14 1 13 15
M  V30 15 2 15 16
M  V30 16 1 15 17
M  V30 17 1 16 18
M  V30 18 2 17 19
M  V30 19 2 18 20
M  V30 20 1 7 8
M  V30 21 1 11 14
M  V30 22 1 19 20
M  V30 END BOND
M  V30 END CTAB
M  END
>  <Smiles>
O=C(Nc1c(Cl)ncc2c1cc[nH]2)Nc1ccccc1

>  <Name>
SPE_0097

>  <Name_tmp>


>  <Residue Name>
S97

$$$$
SPE_0098
Actelion Java MolfileCreator 2.0

  0  0  0  0  0  0              0 V3000
M  V30 BEGIN CTAB
M  V30 COUNTS 20 22 0 0 0
M  V30 BEGIN ATOM
M  V30 1 Cl 2.598 -1.9999 0.0 0
M  V30 2 C 3.4641 -1.4999 0.0 0
M  V30 3 N 4.3301 -1.9999 0.0 0
M  V30 4 C 3.4641 -0.5 0.0 0
M  V30 5 C 5.1961 -1.4999 0.0 0
M  V30 6 N 2.598 0.0 0.0 0
M  V30 7 C 4.3301 0.0 0.0 0
M  V30 8 N 5.1961 -0.4999 0.0 0
M  V30 9 C 1.732 -0.5 0.0 0
M  V30 10 C 4.538 0.9781 0.0 0
M  V30 11 N 5.9392 0.1691 0.0 0
M  V30 12 O 1.732 -1.5 0.0 0
M  V30 13 N 0.866 0.0 0.0 0
M  V30 14 C 5.5325 1.0826 0.0 0
M  V30 15 C 0.0 -0.5 0.0 0
M  V30 16 C -0.866 0.0 0.0 0
M  V30 17 C 0.0 -1.4999 0.0 0
M  V30 18 C -1.732 -0.4999 0.0 0
M  V30 19 C -0.866 -1.9999 0.0 0
M  V30 20 C -1.732 -1.4999 0.0 0
M  V30 END ATOM
M  V30 BEGIN BOND
M  V30 1 1 1 2
M  V30 2 1 2 3
M  V30 3 2 2 4
M  V30 4 2 3 5
M  V30 5 1 4 6
M  V30 6 1 4 7
M  V30 7 1 5 8
M  V30 8 1 6 9
M  V30 9 2 7 10
M  V30 10 1 8 11
M  V30 11 2 9 12
M  V30 12 1 9 13
M  V30 13 1 10 14
M  V30 14 1 13 15
M  V30 15 2 15 16
M  V30 16 1 15 17
M  V30 17 1 16 18
M  V30 18 2 17 19
M  V30 19 2 18 20
M  V30 20 1 7 8
M  V30 21 2 11 14
M  V30 22 1 19 20
M  V30 END BOND
M  V30 END CTAB
M  END
>  <Smiles>
O=C(Nc1c(Cl)ncn2c1ccn2)Nc1ccccc1

>  <Name>
SPE_0098

>  <Name_tmp>


>  <Residue Name>
S98

$$$$
SPE_0099
Actelion Java MolfileCreator 2.0

  0  0  0  0  0  0              0 V3000
M  V30 BEGIN CTAB
M  V30 COUNTS 20 22 0 0 0
M  V30 BEGIN ATOM
M  V30 1 Cl 2.598 -1.9999 0.0 0
M  V30 2 C 3.4641 -1.4999 0.0 0
M  V30 3 N 4.3301 -1.9999 0.0 0
M  V30 4 C 3.4641 -0.5 0.0 0
M  V30 5 C 5.1961 -1.4999 0.0 0
M  V30 6 N 4.3301 0.0 0.0 0
M  V30 7 N 2.598 0.0 0.0 0
M  V30 8 C 5.1961 -0.4999 0.0 0
M  V30 9 C 4.538 0.9781 0.0 0
M  V30 10 C 1.732 -0.5 0.0 0
M  V30 11 N 5.9392 0.1691 0.0 0
M  V30 12 C 5.5325 1.0826 0.0 0
M  V30 13 O 1.732 -1.5 0.0 0
M  V30 14 N 0.866 0.0 0.0 0
M  V30 15 C 0.0 -0.5 0.0 0
M  V30 16 C -0.866 0.0 0.0 0
M  V30 17 C 0.0 -1.4999 0.0 0
M  V30 18 C -1.732 -0.4999 0.0 0
M  V30 19 C -0.866 -1.9999 0.0 0
M  V30 20 C -1.732 -1.4999 0.0 0
M  V30 END ATOM
M  V30 BEGIN BOND
M  V30 1 1 1 2
M  V30 2 1 2 3
M  V30 3 2 2 4
M  V30 4 2 3 5
M  V30 5 1 4 6
M  V30 6 1 4 7
M  V30 7 1 5 8
M  V30 8 1 6 9
M  V30 9 1 7 10
M  V30 10 2 8 11
M  V30 11 2 9 12
M  V30 12 2 10 13
M  V30 13 1 10 14
M  V30 14 1 14 15
M  V30 15 2 15 16
M  V30 16 1 15 17
M  V30 17 1 16 18
M  V30 18 2 17 19
M  V30 19 2 18 20
M  V30 20 1 6 8
M  V30 21 1 11 12
M  V30 22 1 19 20
M  V30 END BOND
M  V30 END CTAB
M  END
>  <Smiles>
O=C(Nc1c(Cl)ncc2n1ccn2)Nc1ccccc1

>  <Name>
SPE_0099

>  <Name_tmp>


>  <Residue Name>
S99

$$$$
SPE_0100
Actelion Java MolfileCreator 2.0

  0  0  0  0  0  0              0 V3000
M  V30 BEGIN CTAB
M  V30 COUNTS 20 22 0 0 0
M  V30 BEGIN ATOM
M  V30 1 Cl 2.598 -1.9999 0.0 0
M  V30 2 C 3.4641 -1.4999 0.0 0
M  V30 3 N 4.3301 -1.9999 0.0 0
M  V30 4 C 3.4641 -0.5 0.0 0
M  V30 5 C 5.1961 -1.4999 0.0 0
M  V30 6 N 2.598 0.0 0.0 0
M  V30 7 C 4.3301 0.0 0.0 0
M  V30 8 C 5.1961 -0.4999 0.0 0
M  V30 9 C 1.732 -0.5 0.0 0
M  V30 10 N 4.538 0.9781 0.0 0
M  V30 11 N 5.9392 0.1691 0.0 0
M  V30 12 O 1.732 -1.5 0.0 0
M  V30 13 N 0.866 0.0 0.0 0
M  V30 14 C 5.5325 1.0826 0.0 0
M  V30 15 C 0.0 -0.5 0.0 0
M  V30 16 C -0.866 0.0 0.0 0
M  V30 17 C 0.0 -1.4999 0.0 0
M  V30 18 C -1.732 -0.4999 0.0 0
M  V30 19 C -0.866 -1.9999 0.0 0
M  V30 20 C -1.732 -1.4999 0.0 0
M  V30 END ATOM
M  V30 BEGIN BOND
M  V30 1 1 1 2
M  V30 2 2 2 3
M  V30 3 1 2 4
M  V30 4 1 3 5
M  V30 5 1 4 6
M  V30 6 2 4 7
M  V30 7 2 5 8
M  V30 8 1 6 9
M  V30 9 1 7 10
M  V30 10 1 8 11
M  V30 11 2 9 12
M  V30 12 1 9 13
M  V30 13 2 10 14
M  V30 14 1 13 15
M  V30 15 2 15 16
M  V30 16 1 15 17
M  V30 17 1 16 18
M  V30 18 2 17 19
M  V30 19 2 18 20
M  V30 20 1 7 8
M  V30 21 1 11 14
M  V30 22 1 19 20
M  V30 END BOND
M  V30 END CTAB
M  END
>  <Smiles>
O=C(Nc1c(Cl)ncc2c1nc[nH]2)Nc1ccccc1

>  <Name>
SPE_0100

>  <Name_tmp>


>  <Residue Name>
T00

$$$$
SPE_0101
Actelion Java MolfileCreator 2.0

  0  0  0  0  0  0              0 V3000
M  V30 BEGIN CTAB
M  V30 COUNTS 20 22 0 0 0
M  V30 BEGIN ATOM
M  V30 1 Cl 2.598 -1.9999 0.0 0
M  V30 2 C 3.4641 -1.4999 0.0 0
M  V30 3 N 4.3301 -1.9999 0.0 0
M  V30 4 C 3.4641 -0.5 0.0 0
M  V30 5 C 5.1961 -1.4999 0.0 0
M  V30 6 N 2.598 0.0 0.0 0
M  V30 7 C 4.3301 0.0 0.0 0
M  V30 8 C 5.1961 -0.4999 0.0 0
M  V30 9 C 1.732 -0.5 0.0 0
M  V30 10 C 4.538 0.9781 0.0 0
M  V30 11 N 5.9392 0.1691 0.0 0
M  V30 12 O 1.732 -1.5 0.0 0
M  V30 13 N 0.866 0.0 0.0 0
M  V30 14 N 5.5325 1.0826 0.0 0
M  V30 15 C 0.0 -0.5 0.0 0
M  V30 16 C -0.866 0.0 0.0 0
M  V30 17 C 0.0 -1.4999 0.0 0
M  V30 18 C -1.732 -0.4999 0.0 0
M  V30 19 C -0.866 -1.9999 0.0 0
M  V30 20 C -1.732 -1.4999 0.0 0
M  V30 END ATOM
M  V30 BEGIN BOND
M  V30 1 1 1 2
M  V30 2 2 2 3
M  V30 3 1 2 4
M  V30 4 1 3 5
M  V30 5 1 4 6
M  V30 6 2 4 7
M  V30 7 2 5 8
M  V30 8 1 6 9
M  V30 9 1 7 10
M  V30 10 1 8 11
M  V30 11 2 9 12
M  V30 12 1 9 13
M  V30 13 2 10 14
M  V30 14 1 13 15
M  V30 15 2 15 16
M  V30 16 1 15 17
M  V30 17 1 16 18
M  V30 18 2 17 19
M  V30 19 2 18 20
M  V30 20 1 7 8
M  V30 21 1 11 14
M  V30 22 1 19 20
M  V30 END BOND
M  V30 END CTAB
M  END
>  <Smiles>
O=C(Nc1c(Cl)ncc2c1cn[nH]2)Nc1ccccc1

>  <Name>
SPE_0101

>  <Name_tmp>


>  <Residue Name>
T01

$$$$
SPE_0102
Actelion Java MolfileCreator 2.0

  0  0  0  0  0  0              0 V3000
M  V30 BEGIN CTAB
M  V30 COUNTS 21 23 0 0 0
M  V30 BEGIN ATOM
M  V30 1 Cl 2.598 -1.9999 0.0 0
M  V30 2 C 3.4641 -1.4999 0.0 0
M  V30 3 N 4.3301 -1.9999 0.0 0
M  V30 4 C 3.4641 -0.5 0.0 0
M  V30 5 C 5.1961 -1.4999 0.0 0
M  V30 6 N 2.598 0.0 0.0 0
M  V30 7 C 4.3301 0.0 0.0 0
M  V30 8 C 5.1961 -0.4999 0.0 0
M  V30 9 C 1.732 -0.5 0.0 0
M  V30 10 N 4.3301 0.9999 0.0 0
M  V30 11 N 6.0621 0.0 0.0 0
M  V30 12 O 1.732 -1.5 0.0 0
M  V30 13 N 0.866 0.0 0.0 0
M  V30 14 C 5.1961 1.5 0.0 0
M  V30 15 C 6.0621 1.0 0.0 0
M  V30 16 C 0.0 -0.5 0.0 0
M  V30 17 C -0.866 0.0 0.0 0
M  V30 18 C 0.0 -1.4999 0.0 0
M  V30 19 C -1.732 -0.4999 0.0 0
M  V30 20 C -0.866 -1.9999 0.0 0
M  V30 21 C -1.732 -1.4999 0.0 0
M  V30 END ATOM
M  V30 BEGIN BOND
M  V30 1 1 1 2
M  V30 2 1 2 3
M  V30 3 2 2 4
M  V30 4 2 3 5
M  V30 5 1 4 6
M  V30 6 1 4 7
M  V30 7 1 5 8
M  V30 8 1 6 9
M  V30 9 2 7 10
M  V30 10 2 8 11
M  V30 11 2 9 12
M  V30 12 1 9 13
M  V30 13 1 10 14
M  V30 14 1 11 15
M  V30 15 1 13 16
M  V30 16 2 16 17
M  V30 17 1 16 18
M  V30 18 1 17 19
M  V30 19 2 18 20
M  V30 20 2 19 21
M  V30 21 1 7 8
M  V30 22 2 14 15
M  V30 23 1 20 21
M  V30 END BOND
M  V30 END CTAB
M  END
>  <Smiles>
O=C(Nc1c(Cl)ncc2c1nccn2)Nc1ccccc1

>  <Name>
SPE_0102

>  <Name_tmp>


>  <Residue Name>
T02

$$$$
SPE_0103
Actelion Java MolfileCreator 2.0

  0  0  0  0  0  0              0 V3000
M  V30 BEGIN CTAB
M  V30 COUNTS 18 19 0 0 0
M  V30 BEGIN ATOM
M  V30 1 Cl 2.598 -1.9999 0.0 0
M  V30 2 C 3.4641 -1.4999 0.0 0
M  V30 3 N 4.3301 -1.9999 0.0 0
M  V30 4 C 3.4641 -0.5 0.0 0
M  V30 5 C 5.1961 -1.4999 0.0 0
M  V30 6 N 2.598 0.0 0.0 0
M  V30 7 C 4.3301 0.0 0.0 0
M  V30 8 C 5.1961 -0.4999 0.0 0
M  V30 9 C 1.732 -0.5 0.0 0
M  V30 10 N 6.0621 0.0 0.0 0
M  V30 11 O 1.732 -1.5 0.0 0
M  V30 12 C 0.866 0.0 0.0 0
M  V30 13 C 0.0 -0.5 0.0 0
M  V30 14 C -0.866 0.0 0.0 0
M  V30 15 C 0.0 -1.4999 0.0 0
M  V30 16 C -1.732 -0.4999 0.0 0
M  V30 17 C -0.866 -1.9999 0.0 0
M  V30 18 C -1.732 -1.4999 0.0 0
M  V30 END ATOM
M  V30 BEGIN BOND
M  V30 1 1 1 2
M  V30 2 2 2 3
M  V30 3 1 2 4
M  V30 4 1 3 5
M  V30 5 1 4 6
M  V30 6 2 4 7
M  V30 7 2 5 8
M  V30 8 1 6 9
M  V30 9 1 8 10
M  V30 10 2 9 11
M  V30 11 1 9 12
M  V30 12 1 12 13
M  V30 13 1 13 14
M  V30 14 1 13 15
M  V30 15 1 14 16
M  V30 16 1 15 17
M  V30 17 1 16 18
M  V30 18 1 7 8
M  V30 19 1 17 18
M  V30 END BOND
M  V30 END CTAB
M  END
>  <Smiles>
O=C(Nc1cc(N)cnc1Cl)CC1CCCCC1

>  <Name>
SPE_0103

>  <Name_tmp>


>  <Residue Name>
T03

$$$$
SPE_0104
Actelion Java MolfileCreator 2.0

  0  0  0  0  0  0              0 V3000
M  V30 BEGIN CTAB
M  V30 COUNTS 19 20 0 0 0
M  V30 BEGIN ATOM
M  V30 1 Cl 2.598 -1.9999 0.0 0
M  V30 2 C 3.4641 -1.4999 0.0 0
M  V30 3 N 4.3301 -1.9999 0.0 0
M  V30 4 C 3.4641 -0.5 0.0 0
M  V30 5 C 5.1961 -1.4999 0.0 0
M  V30 6 N 2.598 0.0 0.0 0
M  V30 7 C 4.3301 0.0 0.0 0
M  V30 8 C 5.1961 -0.4999 0.0 0
M  V30 9 C 1.732 -0.5 0.0 0
M  V30 10 N 6.0621 0.0 0.0 0
M  V30 11 O 1.732 -1.5 0.0 0
M  V30 12 C 0.866 0.0 0.0 0
M  V30 13 C 6.0621 1.0 0.0 0
M  V30 14 C 0.0 -0.5 0.0 0
M  V30 15 C -0.866 0.0 0.0 0
M  V30 16 C 0.0 -1.4999 0.0 0
M  V30 17 C -1.732 -0.4999 0.0 0
M  V30 18 C -0.866 -1.9999 0.0 0
M  V30 19 C -1.732 -1.4999 0.0 0
M  V30 END ATOM
M  V30 BEGIN BOND
M  V30 1 1 1 2
M  V30 2 2 2 3
M  V30 3 1 2 4
M  V30 4 1 3 5
M  V30 5 1 4 6
M  V30 6 2 4 7
M  V30 7 2 5 8
M  V30 8 1 6 9
M  V30 9 1 8 10
M  V30 10 2 9 11
M  V30 11 1 9 12
M  V30 12 1 10 13
M  V30 13 1 12 14
M  V30 14 1 14 15
M  V30 15 1 14 16
M  V30 16 1 15 17
M  V30 17 1 16 18
M  V30 18 1 17 19
M  V30 19 1 7 8
M  V30 20 1 18 19
M  V30 END BOND
M  V30 END CTAB
M  END
>  <Smiles>
CNc1cnc(c(c1)NC(=O)CC1CCCCC1)Cl

>  <Name>
SPE_0104

>  <Name_tmp>


>  <Residue Name>
T04

$$$$
SPE_0105
Actelion Java MolfileCreator 2.0

  0  0  0  0  0  0              0 V3000
M  V30 BEGIN CTAB
M  V30 COUNTS 20 21 0 0 0
M  V30 BEGIN ATOM
M  V30 1 Cl 2.598 -1.9999 0.0 0
M  V30 2 C 3.4641 -1.4999 0.0 0
M  V30 3 N 4.3301 -1.9999 0.0 0
M  V30 4 C 3.4641 -0.5 0.0 0
M  V30 5 C 5.1961 -1.4999 0.0 0
M  V30 6 N 2.598 0.0 0.0 0
M  V30 7 C 4.3301 0.0 0.0 0
M  V30 8 C 5.1961 -0.4999 0.0 0
M  V30 9 C 1.732 -0.5 0.0 0
M  V30 10 N 6.0621 0.0 0.0 0
M  V30 11 O 1.732 -1.5 0.0 0
M  V30 12 C 0.866 0.0 0.0 0
M  V30 13 C 6.9282 -0.4999 0.0 0
M  V30 14 C 6.0621 1.0 0.0 0
M  V30 15 C 0.0 -0.5 0.0 0
M  V30 16 C -0.866 0.0 0.0 0
M  V30 17 C 0.0 -1.4999 0.0 0
M  V30 18 C -1.732 -0.4999 0.0 0
M  V30 19 C -0.866 -1.9999 0.0 0
M  V30 20 C -1.732 -1.4999 0.0 0
M  V30 END ATOM
M  V30 BEGIN BOND
M  V30 1 1 1 2
M  V30 2 2 2 3
M  V30 3 1 2 4
M  V30 4 1 3 5
M  V30 5 1 4 6
M  V30 6 2 4 7
M  V30 7 2 5 8
M  V30 8 1 6 9
M  V30 9 1 8 10
M  V30 10 2 9 11
M  V30 11 1 9 12
M  V30 12 1 10 13
M  V30 13 1 10 14
M  V30 14 1 12 15
M  V30 15 1 15 16
M  V30 16 1 15 17
M  V30 17 1 16 18
M  V30 18 1 17 19
M  V30 19 1 18 20
M  V30 20 1 7 8
M  V30 21 1 19 20
M  V30 END BOND
M  V30 END CTAB
M  END
>  <Smiles>
CN(c1cnc(c(c1)NC(=O)CC1CCCCC1)Cl)C

>  <Name>
SPE_0105

>  <Name_tmp>


>  <Residue Name>
T05

$$$$
SPE_0106
Actelion Java MolfileCreator 2.0

  0  0  0  0  0  0              0 V3000
M  V30 BEGIN CTAB
M  V30 COUNTS 21 23 0 0 0
M  V30 BEGIN ATOM
M  V30 1 Cl 2.598 -1.9999 0.0 0
M  V30 2 C 3.4641 -1.4999 0.0 0
M  V30 3 N 4.3301 -1.9999 0.0 0
M  V30 4 C 3.4641 -0.5 0.0 0
M  V30 5 C 5.1961 -1.4999 0.0 0
M  V30 6 N 2.598 0.0 0.0 0
M  V30 7 C 4.3301 0.0 0.0 0
M  V30 8 C 5.1961 -0.4999 0.0 0
M  V30 9 C 1.732 -0.5 0.0 0
M  V30 10 C 4.3301 0.9999 0.0 0
M  V30 11 N 6.0621 0.0 0.0 0
M  V30 12 O 1.732 -1.5 0.0 0
M  V30 13 C 0.866 0.0 0.0 0
M  V30 14 N 5.1961 1.5 0.0 0
M  V30 15 C 6.0621 1.0 0.0 0
M  V30 16 C 0.0 -0.5 0.0 0
M  V30 17 C -0.866 0.0 0.0 0
M  V30 18 C 0.0 -1.4999 0.0 0
M  V30 19 C -1.732 -0.4999 0.0 0
M  V30 20 C -0.866 -1.9999 0.0 0
M  V30 21 C -1.732 -1.4999 0.0 0
M  V30 END ATOM
M  V30 BEGIN BOND
M  V30 1 1 1 2
M  V30 2 1 2 3
M  V30 3 2 2 4
M  V30 4 2 3 5
M  V30 5 1 4 6
M  V30 6 1 4 7
M  V30 7 1 5 8
M  V30 8 1 6 9
M  V30 9 2 7 10
M  V30 10 2 8 11
M  V30 11 2 9 12
M  V30 12 1 9 13
M  V30 13 1 10 14
M  V30 14 1 11 15
M  V30 15 1 13 16
M  V30 16 1 16 17
M  V30 17 1 16 18
M  V30 18 1 17 19
M  V30 19 1 18 20
M  V30 20 1 19 21
M  V30 21 1 7 8
M  V30 22 2 14 15
M  V30 23 1 20 21
M  V30 END BOND
M  V30 END CTAB
M  END
>  <Smiles>
O=C(Nc1c(Cl)ncc2c1cncn2)CC1CCCCC1

>  <Name>
SPE_0106

>  <Name_tmp>


>  <Residue Name>
T06

$$$$
SPE_0107
Actelion Java MolfileCreator 2.0

  0  0  0  0  0  0              0 V3000
M  V30 BEGIN CTAB
M  V30 COUNTS 21 23 0 0 0
M  V30 BEGIN ATOM
M  V30 1 Cl 2.598 -1.9999 0.0 0
M  V30 2 C 3.4641 -1.4999 0.0 0
M  V30 3 N 4.3301 -1.9999 0.0 0
M  V30 4 C 3.4641 -0.5 0.0 0
M  V30 5 C 5.1961 -1.4999 0.0 0
M  V30 6 N 2.598 0.0 0.0 0
M  V30 7 C 4.3301 0.0 0.0 0
M  V30 8 C 5.1961 -0.4999 0.0 0
M  V30 9 C 1.732 -0.5 0.0 0
M  V30 10 C 4.3301 0.9999 0.0 0
M  V30 11 N 6.0621 0.0 0.0 0
M  V30 12 O 1.732 -1.5 0.0 0
M  V30 13 C 0.866 0.0 0.0 0
M  V30 14 C 5.1961 1.5 0.0 0
M  V30 15 C 6.0621 1.0 0.0 0
M  V30 16 C 0.0 -0.5 0.0 0
M  V30 17 C -0.866 0.0 0.0 0
M  V30 18 C 0.0 -1.4999 0.0 0
M  V30 19 C -1.732 -0.4999 0.0 0
M  V30 20 C -0.866 -1.9999 0.0 0
M  V30 21 C -1.732 -1.4999 0.0 0
M  V30 END ATOM
M  V30 BEGIN BOND
M  V30 1 1 1 2
M  V30 2 1 2 3
M  V30 3 2 2 4
M  V30 4 2 3 5
M  V30 5 1 4 6
M  V30 6 1 4 7
M  V30 7 1 5 8
M  V30 8 1 6 9
M  V30 9 2 7 10
M  V30 10 2 8 11
M  V30 11 2 9 12
M  V30 12 1 9 13
M  V30 13 1 10 14
M  V30 14 1 11 15
M  V30 15 1 13 16
M  V30 16 1 16 17
M  V30 17 1 16 18
M  V30 18 1 17 19
M  V30 19 1 18 20
M  V30 20 1 19 21
M  V30 21 1 7 8
M  V30 22 2 14 15
M  V30 23 1 20 21
M  V30 END BOND
M  V30 END CTAB
M  END
>  <Smiles>
O=C(Nc1c(Cl)ncc2c1cccn2)CC1CCCCC1

>  <Name>
SPE_0107

>  <Name_tmp>


>  <Residue Name>
T07

$$$$
SPE_0108
Actelion Java MolfileCreator 2.0

  0  0  0  0  0  0              0 V3000
M  V30 BEGIN CTAB
M  V30 COUNTS 20 22 0 0 0
M  V30 BEGIN ATOM
M  V30 1 Cl 2.598 -1.9999 0.0 0
M  V30 2 C 3.4641 -1.4999 0.0 0
M  V30 3 N 4.3301 -1.9999 0.0 0
M  V30 4 C 3.4641 -0.5 0.0 0
M  V30 5 C 5.1961 -1.4999 0.0 0
M  V30 6 N 2.598 0.0 0.0 0
M  V30 7 C 4.3301 0.0 0.0 0
M  V30 8 C 5.1961 -0.4999 0.0 0
M  V30 9 C 1.732 -0.5 0.0 0
M  V30 10 C 4.538 0.9781 0.0 0
M  V30 11 N 5.9392 0.1691 0.0 0
M  V30 12 O 1.732 -1.5 0.0 0
M  V30 13 C 0.866 0.0 0.0 0
M  V30 14 C 5.5325 1.0826 0.0 0
M  V30 15 C 0.0 -0.5 0.0 0
M  V30 16 C -0.866 0.0 0.0 0
M  V30 17 C 0.0 -1.4999 0.0 0
M  V30 18 C -1.732 -0.4999 0.0 0
M  V30 19 C -0.866 -1.9999 0.0 0
M  V30 20 C -1.732 -1.4999 0.0 0
M  V30 END ATOM
M  V30 BEGIN BOND
M  V30 1 1 1 2
M  V30 2 2 2 3
M  V30 3 1 2 4
M  V30 4 1 3 5
M  V30 5 1 4 6
M  V30 6 2 4 7
M  V30 7 2 5 8
M  V30 8 1 6 9
M  V30 9 1 7 10
M  V30 10 1 8 11
M  V30 11 2 9 12
M  V30 12 1 9 13
M  V30 13 2 10 14
M  V30 14 1 13 15
M  V30 15 1 15 16
M  V30 16 1 15 17
M  V30 17 1 16 18
M  V30 18 1 17 19
M  V30 19 1 18 20
M  V30 20 1 7 8
M  V30 21 1 11 14
M  V30 22 1 19 20
M  V30 END BOND
M  V30 END CTAB
M  END
>  <Smiles>
O=C(Nc1c(Cl)ncc2c1cc[nH]2)CC1CCCCC1

>  <Name>
SPE_0108

>  <Name_tmp>


>  <Residue Name>
T08

$$$$
SPE_0109
Actelion Java MolfileCreator 2.0

  0  0  0  0  0  0              0 V3000
M  V30 BEGIN CTAB
M  V30 COUNTS 20 22 0 0 0
M  V30 BEGIN ATOM
M  V30 1 Cl 2.598 -1.9999 0.0 0
M  V30 2 C 3.4641 -1.4999 0.0 0
M  V30 3 N 4.3301 -1.9999 0.0 0
M  V30 4 C 3.4641 -0.5 0.0 0
M  V30 5 C 5.1961 -1.4999 0.0 0
M  V30 6 N 2.598 0.0 0.0 0
M  V30 7 C 4.3301 0.0 0.0 0
M  V30 8 N 5.1961 -0.4999 0.0 0
M  V30 9 C 1.732 -0.5 0.0 0
M  V30 10 C 4.538 0.9781 0.0 0
M  V30 11 N 5.9392 0.1691 0.0 0
M  V30 12 O 1.732 -1.5 0.0 0
M  V30 13 C 0.866 0.0 0.0 0
M  V30 14 C 5.5325 1.0826 0.0 0
M  V30 15 C 0.0 -0.5 0.0 0
M  V30 16 C -0.866 0.0 0.0 0
M  V30 17 C 0.0 -1.4999 0.0 0
M  V30 18 C -1.732 -0.4999 0.0 0
M  V30 19 C -0.866 -1.9999 0.0 0
M  V30 20 C -1.732 -1.4999 0.0 0
M  V30 END ATOM
M  V30 BEGIN BOND
M  V30 1 1 1 2
M  V30 2 1 2 3
M  V30 3 2 2 4
M  V30 4 2 3 5
M  V30 5 1 4 6
M  V30 6 1 4 7
M  V30 7 1 5 8
M  V30 8 1 6 9
M  V30 9 2 7 10
M  V30 10 1 8 11
M  V30 11 2 9 12
M  V30 12 1 9 13
M  V30 13 1 10 14
M  V30 14 1 13 15
M  V30 15 1 15 16
M  V30 16 1 15 17
M  V30 17 1 16 18
M  V30 18 1 17 19
M  V30 19 1 18 20
M  V30 20 1 7 8
M  V30 21 2 11 14
M  V30 22 1 19 20
M  V30 END BOND
M  V30 END CTAB
M  END
>  <Smiles>
O=C(Nc1c(Cl)ncn2c1ccn2)CC1CCCCC1

>  <Name>
SPE_0109

>  <Name_tmp>


>  <Residue Name>
T09

$$$$
SPE_0110
Actelion Java MolfileCreator 2.0

  0  0  0  0  0  0              0 V3000
M  V30 BEGIN CTAB
M  V30 COUNTS 20 22 0 0 0
M  V30 BEGIN ATOM
M  V30 1 Cl 2.598 -1.9999 0.0 0
M  V30 2 C 3.4641 -1.4999 0.0 0
M  V30 3 N 4.3301 -1.9999 0.0 0
M  V30 4 C 3.4641 -0.5 0.0 0
M  V30 5 C 5.1961 -1.4999 0.0 0
M  V30 6 N 4.3301 0.0 0.0 0
M  V30 7 N 2.598 0.0 0.0 0
M  V30 8 C 5.1961 -0.4999 0.0 0
M  V30 9 C 4.538 0.9781 0.0 0
M  V30 10 C 1.732 -0.5 0.0 0
M  V30 11 N 5.9392 0.1691 0.0 0
M  V30 12 C 5.5325 1.0826 0.0 0
M  V30 13 O 1.732 -1.5 0.0 0
M  V30 14 C 0.866 0.0 0.0 0
M  V30 15 C 0.0 -0.5 0.0 0
M  V30 16 C -0.866 0.0 0.0 0
M  V30 17 C 0.0 -1.4999 0.0 0
M  V30 18 C -1.732 -0.4999 0.0 0
M  V30 19 C -0.866 -1.9999 0.0 0
M  V30 20 C -1.732 -1.4999 0.0 0
M  V30 END ATOM
M  V30 BEGIN BOND
M  V30 1 1 1 2
M  V30 2 1 2 3
M  V30 3 2 2 4
M  V30 4 2 3 5
M  V30 5 1 4 6
M  V30 6 1 4 7
M  V30 7 1 5 8
M  V30 8 1 6 9
M  V30 9 1 7 10
M  V30 10 2 8 11
M  V30 11 2 9 12
M  V30 12 2 10 13
M  V30 13 1 10 14
M  V30 14 1 14 15
M  V30 15 1 15 16
M  V30 16 1 15 17
M  V30 17 1 16 18
M  V30 18 1 17 19
M  V30 19 1 18 20
M  V30 20 1 6 8
M  V30 21 1 11 12
M  V30 22 1 19 20
M  V30 END BOND
M  V30 END CTAB
M  END
>  <Smiles>
O=C(Nc1c(Cl)ncc2n1ccn2)CC1CCCCC1

>  <Name>
SPE_0110

>  <Name_tmp>


>  <Residue Name>
T10

$$$$
SPE_0111
Actelion Java MolfileCreator 2.0

  0  0  0  0  0  0              0 V3000
M  V30 BEGIN CTAB
M  V30 COUNTS 20 22 0 0 0
M  V30 BEGIN ATOM
M  V30 1 Cl 2.598 -1.9999 0.0 0
M  V30 2 C 3.4641 -1.4999 0.0 0
M  V30 3 N 4.3301 -1.9999 0.0 0
M  V30 4 C 3.4641 -0.5 0.0 0
M  V30 5 C 5.1961 -1.4999 0.0 0
M  V30 6 N 2.598 0.0 0.0 0
M  V30 7 C 4.3301 0.0 0.0 0
M  V30 8 C 5.1961 -0.4999 0.0 0
M  V30 9 C 1.732 -0.5 0.0 0
M  V30 10 N 4.538 0.9781 0.0 0
M  V30 11 N 5.9392 0.1691 0.0 0
M  V30 12 O 1.732 -1.5 0.0 0
M  V30 13 C 0.866 0.0 0.0 0
M  V30 14 C 5.5325 1.0826 0.0 0
M  V30 15 C 0.0 -0.5 0.0 0
M  V30 16 C -0.866 0.0 0.0 0
M  V30 17 C 0.0 -1.4999 0.0 0
M  V30 18 C -1.732 -0.4999 0.0 0
M  V30 19 C -0.866 -1.9999 0.0 0
M  V30 20 C -1.732 -1.4999 0.0 0
M  V30 END ATOM
M  V30 BEGIN BOND
M  V30 1 1 1 2
M  V30 2 2 2 3
M  V30 3 1 2 4
M  V30 4 1 3 5
M  V30 5 1 4 6
M  V30 6 2 4 7
M  V30 7 2 5 8
M  V30 8 1 6 9
M  V30 9 1 7 10
M  V30 10 1 8 11
M  V30 11 2 9 12
M  V30 12 1 9 13
M  V30 13 2 10 14
M  V30 14 1 13 15
M  V30 15 1 15 16
M  V30 16 1 15 17
M  V30 17 1 16 18
M  V30 18 1 17 19
M  V30 19 1 18 20
M  V30 20 1 7 8
M  V30 21 1 11 14
M  V30 22 1 19 20
M  V30 END BOND
M  V30 END CTAB
M  END
>  <Smiles>
O=C(Nc1c(Cl)ncc2c1nc[nH]2)CC1CCCCC1

>  <Name>
SPE_0111

>  <Name_tmp>


>  <Residue Name>
T11

$$$$
SPE_0112
Actelion Java MolfileCreator 2.0

  0  0  0  0  0  0              0 V3000
M  V30 BEGIN CTAB
M  V30 COUNTS 20 22 0 0 0
M  V30 BEGIN ATOM
M  V30 1 Cl 2.598 -1.9999 0.0 0
M  V30 2 C 3.4641 -1.4999 0.0 0
M  V30 3 N 4.3301 -1.9999 0.0 0
M  V30 4 C 3.4641 -0.5 0.0 0
M  V30 5 C 5.1961 -1.4999 0.0 0
M  V30 6 N 2.598 0.0 0.0 0
M  V30 7 C 4.3301 0.0 0.0 0
M  V30 8 C 5.1961 -0.4999 0.0 0
M  V30 9 C 1.732 -0.5 0.0 0
M  V30 10 C 4.538 0.9781 0.0 0
M  V30 11 N 5.9392 0.1691 0.0 0
M  V30 12 O 1.732 -1.5 0.0 0
M  V30 13 C 0.866 0.0 0.0 0
M  V30 14 N 5.5325 1.0826 0.0 0
M  V30 15 C 0.0 -0.5 0.0 0
M  V30 16 C -0.866 0.0 0.0 0
M  V30 17 C 0.0 -1.4999 0.0 0
M  V30 18 C -1.732 -0.4999 0.0 0
M  V30 19 C -0.866 -1.9999 0.0 0
M  V30 20 C -1.732 -1.4999 0.0 0
M  V30 END ATOM
M  V30 BEGIN BOND
M  V30 1 1 1 2
M  V30 2 2 2 3
M  V30 3 1 2 4
M  V30 4 1 3 5
M  V30 5 1 4 6
M  V30 6 2 4 7
M  V30 7 2 5 8
M  V30 8 1 6 9
M  V30 9 1 7 10
M  V30 10 1 8 11
M  V30 11 2 9 12
M  V30 12 1 9 13
M  V30 13 2 10 14
M  V30 14 1 13 15
M  V30 15 1 15 16
M  V30 16 1 15 17
M  V30 17 1 16 18
M  V30 18 1 17 19
M  V30 19 1 18 20
M  V30 20 1 7 8
M  V30 21 1 11 14
M  V30 22 1 19 20
M  V30 END BOND
M  V30 END CTAB
M  END
>  <Smiles>
O=C(Nc1c(Cl)ncc2c1cn[nH]2)CC1CCCCC1

>  <Name>
SPE_0112

>  <Name_tmp>


>  <Residue Name>
T12

$$$$
SPE_0113
Actelion Java MolfileCreator 2.0

  0  0  0  0  0  0              0 V3000
M  V30 BEGIN CTAB
M  V30 COUNTS 21 23 0 0 0
M  V30 BEGIN ATOM
M  V30 1 Cl 2.598 -1.9999 0.0 0
M  V30 2 C 3.4641 -1.4999 0.0 0
M  V30 3 N 4.3301 -1.9999 0.0 0
M  V30 4 C 3.4641 -0.5 0.0 0
M  V30 5 C 5.1961 -1.4999 0.0 0
M  V30 6 N 2.598 0.0 0.0 0
M  V30 7 C 4.3301 0.0 0.0 0
M  V30 8 C 5.1961 -0.4999 0.0 0
M  V30 9 C 1.732 -0.5 0.0 0
M  V30 10 N 4.3301 0.9999 0.0 0
M  V30 11 N 6.0621 0.0 0.0 0
M  V30 12 O 1.732 -1.5 0.0 0
M  V30 13 C 0.866 0.0 0.0 0
M  V30 14 C 5.1961 1.5 0.0 0
M  V30 15 C 6.0621 1.0 0.0 0
M  V30 16 C 0.0 -0.5 0.0 0
M  V30 17 C -0.866 0.0 0.0 0
M  V30 18 C 0.0 -1.4999 0.0 0
M  V30 19 C -1.732 -0.4999 0.0 0
M  V30 20 C -0.866 -1.9999 0.0 0
M  V30 21 C -1.732 -1.4999 0.0 0
M  V30 END ATOM
M  V30 BEGIN BOND
M  V30 1 1 1 2
M  V30 2 1 2 3
M  V30 3 2 2 4
M  V30 4 2 3 5
M  V30 5 1 4 6
M  V30 6 1 4 7
M  V30 7 1 5 8
M  V30 8 1 6 9
M  V30 9 2 7 10
M  V30 10 2 8 11
M  V30 11 2 9 12
M  V30 12 1 9 13
M  V30 13 1 10 14
M  V30 14 1 11 15
M  V30 15 1 13 16
M  V30 16 1 16 17
M  V30 17 1 16 18
M  V30 18 1 17 19
M  V30 19 1 18 20
M  V30 20 1 19 21
M  V30 21 1 7 8
M  V30 22 2 14 15
M  V30 23 1 20 21
M  V30 END BOND
M  V30 END CTAB
M  END
>  <Smiles>
O=C(Nc1c(Cl)ncc2c1nccn2)CC1CCCCC1

>  <Name>
SPE_0113

>  <Name_tmp>


>  <Residue Name>
T13

$$$$
