SPE_0036
Actelion Java MolfileCreator 2.0

  0  0  0  0  0  0              0 V3000
M  V30 BEGIN CTAB
M  V30 COUNTS 16 17 0 0 0
M  V30 BEGIN ATOM
M  V30 1 O 0.0 0.0 0.0 0
M  V30 2 C -0.0118 1.5162 0.0 0
M  V30 3 N 1.2793 2.2743 0.0 0
M  V30 4 C -1.3266 2.2743 0.0 0
M  V30 5 C 2.5704 1.5399 0.0 0
M  V30 6 C -2.6415 1.5399 0.0 0
M  V30 7 C 2.5586 0.0473 0.0 0
M  V30 8 C 3.8616 2.298 0.0 0
M  V30 9 C -3.9563 2.298 0.0 0
M  V30 10 C -2.6533 0.0473 0.0 0
M  V30 11 N 3.8497 -0.687 0.0 0
M  V30 12 C 5.1527 1.5517 0.0 0
M  V30 13 C -5.2712 1.5635 0.0 0
M  V30 14 C -3.9682 -0.687 0.0 0
M  V30 15 C 5.1409 0.071 0.0 0
M  V30 16 C -5.283 0.071 0.0 0
M  V30 END ATOM
M  V30 BEGIN BOND
M  V30 1 2 1 2
M  V30 2 1 2 3
M  V30 3 1 2 4
M  V30 4 1 3 5
M  V30 5 1 4 6
M  V30 6 2 5 7
M  V30 7 1 5 8
M  V30 8 1 6 9
M  V30 9 1 6 10
M  V30 10 1 7 11
M  V30 11 2 8 12
M  V30 12 1 9 13
M  V30 13 1 10 14
M  V30 14 2 11 15
M  V30 15 1 13 16
M  V30 16 1 12 15
M  V30 17 1 14 16
M  V30 END BOND
M  V30 END CTAB
M  END
>  <Name>
SPE_0036

>  <Name_tmp>
x0678

>  <Smiles>
O=C(CC1CCCCC1)Nc1cnccc1

>  <Residue Name>
S36

$$$$
SPE_0037
Actelion Java MolfileCreator 2.0

  0  0  0  0  0  0              0 V3000
M  V30 BEGIN CTAB
M  V30 COUNTS 17 18 0 0 0
M  V30 BEGIN ATOM
M  V30 1 O 0.0 0.0 0.0 0
M  V30 2 C -0.0239 1.5315 0.0 0
M  V30 3 N 1.2563 2.2973 0.0 0
M  V30 4 C -1.352 2.2973 0.0 0
M  V30 5 C 2.5366 1.5674 0.0 0
M  V30 6 C -2.6802 1.5674 0.0 0
M  V30 7 C 2.5127 0.0837 0.0 0
M  V30 8 C 3.8169 2.3332 0.0 0
M  V30 9 C -4.0084 2.3332 0.0 0
M  V30 10 C -2.7041 0.0837 0.0 0
M  V30 11 N 3.793 -0.6461 0.0 0
M  V30 12 C 5.0972 1.5913 0.0 0
M  V30 13 C -5.3365 1.6033 0.0 0
M  V30 14 C -4.0323 -0.6461 0.0 0
M  V30 15 C 5.0733 0.1196 0.0 0
M  V30 16 N 6.3895 2.3452 0.0 0
M  V30 17 C -5.3604 0.1196 0.0 0
M  V30 END ATOM
M  V30 BEGIN BOND
M  V30 1 2 1 2
M  V30 2 1 2 3
M  V30 3 1 2 4
M  V30 4 1 3 5
M  V30 5 1 4 6
M  V30 6 2 5 7
M  V30 7 1 5 8
M  V30 8 1 6 9
M  V30 9 1 6 10
M  V30 10 1 7 11
M  V30 11 2 8 12
M  V30 12 1 9 13
M  V30 13 1 10 14
M  V30 14 2 11 15
M  V30 15 1 12 16
M  V30 16 1 13 17
M  V30 17 1 12 15
M  V30 18 1 14 17
M  V30 END BOND
M  V30 END CTAB
M  END
>  <Name>
SPE_0037

>  <Name_tmp>
x0678_01

>  <Smiles>
Nc1cc(NC(CC2CCCCC2)=O)cnc1

>  <Residue Name>
S37

$$$$
SPE_0038
Actelion Java MolfileCreator 2.0

  0  0  0  0  0  0              0 V3000
M  V30 BEGIN CTAB
M  V30 COUNTS 18 19 0 0 0
M  V30 BEGIN ATOM
M  V30 1 O 0.0 0.0 0.0 0
M  V30 2 C -0.0239 1.5321 0.0 0
M  V30 3 N 1.2568 2.2981 0.0 0
M  V30 4 C -1.3525 2.2981 0.0 0
M  V30 5 C 2.5375 1.568 0.0 0
M  V30 6 C -2.6811 1.568 0.0 0
M  V30 7 C 2.5136 0.0837 0.0 0
M  V30 8 C 3.8182 2.334 0.0 0
M  V30 9 C -4.0098 2.334 0.0 0
M  V30 10 C -2.7051 0.0837 0.0 0
M  V30 11 N 3.7943 -0.6463 0.0 0
M  V30 12 C 5.099 1.5919 0.0 0
M  V30 13 C -5.3384 1.6039 0.0 0
M  V30 14 C -4.0337 -0.6463 0.0 0
M  V30 15 C 5.075 0.1196 0.0 0
M  V30 16 N 6.3917 2.346 0.0 0
M  V30 17 C -5.3623 0.1196 0.0 0
M  V30 18 C 7.6844 1.6039 0.0 0
M  V30 END ATOM
M  V30 BEGIN BOND
M  V30 1 2 1 2
M  V30 2 1 2 3
M  V30 3 1 2 4
M  V30 4 1 3 5
M  V30 5 1 4 6
M  V30 6 2 5 7
M  V30 7 1 5 8
M  V30 8 1 6 9
M  V30 9 1 6 10
M  V30 10 1 7 11
M  V30 11 2 8 12
M  V30 12 1 9 13
M  V30 13 1 10 14
M  V30 14 2 11 15
M  V30 15 1 12 16
M  V30 16 1 13 17
M  V30 17 1 16 18
M  V30 18 1 12 15
M  V30 19 1 14 17
M  V30 END BOND
M  V30 END CTAB
M  END
>  <Name>
SPE_0038

>  <Name_tmp>
x0678_02

>  <Smiles>
CNc1cc(NC(CC2CCCCC2)=O)cnc1

>  <Residue Name>
S38

$$$$
SPE_0039
Actelion Java MolfileCreator 2.0

  0  0  0  0  0  0              0 V3000
M  V30 BEGIN CTAB
M  V30 COUNTS 19 20 0 0 0
M  V30 BEGIN ATOM
M  V30 1 O 0.0 0.0 0.0 0
M  V30 2 C -0.0239 1.531 0.0 0
M  V30 3 N 1.2559 2.2966 0.0 0
M  V30 4 C -1.3516 2.2966 0.0 0
M  V30 5 C 2.5358 1.5669 0.0 0
M  V30 6 C -2.6793 1.5669 0.0 0
M  V30 7 C 2.5119 0.0837 0.0 0
M  V30 8 C 3.8157 2.3324 0.0 0
M  V30 9 C -4.0071 2.3324 0.0 0
M  V30 10 C -2.7033 0.0837 0.0 0
M  V30 11 N 3.7918 -0.6459 0.0 0
M  V30 12 C 5.0956 1.5908 0.0 0
M  V30 13 C -5.3348 1.6028 0.0 0
M  V30 14 C -4.031 -0.6459 0.0 0
M  V30 15 C 5.0716 0.1196 0.0 0
M  V30 16 N 6.3874 2.3444 0.0 0
M  V30 17 C -5.3587 0.1196 0.0 0
M  V30 18 C 7.6792 1.6028 0.0 0
M  V30 19 C 6.3754 3.8635 0.0 0
M  V30 END ATOM
M  V30 BEGIN BOND
M  V30 1 2 1 2
M  V30 2 1 2 3
M  V30 3 1 2 4
M  V30 4 1 3 5
M  V30 5 1 4 6
M  V30 6 2 5 7
M  V30 7 1 5 8
M  V30 8 1 6 9
M  V30 9 1 6 10
M  V30 10 1 7 11
M  V30 11 2 8 12
M  V30 12 1 9 13
M  V30 13 1 10 14
M  V30 14 2 11 15
M  V30 15 1 12 16
M  V30 16 1 13 17
M  V30 17 1 16 18
M  V30 18 1 16 19
M  V30 19 1 12 15
M  V30 20 1 14 17
M  V30 END BOND
M  V30 END CTAB
M  END
>  <Name>
SPE_0039

>  <Name_tmp>
x0678_03

>  <Smiles>
CN(C)c1cc(NC(CC2CCCCC2)=O)cnc1

>  <Residue Name>
S39

$$$$
SPE_0040
Actelion Java MolfileCreator 2.0

  0  0  0  0  0  0              0 V3000
M  V30 BEGIN CTAB
M  V30 COUNTS 20 22 0 0 0
M  V30 BEGIN ATOM
M  V30 1 O 0.0 0.0 0.0 0
M  V30 2 C -0.0362 1.5474 0.0 0
M  V30 3 N 1.233 2.3211 0.0 0
M  V30 4 C -1.3781 2.3211 0.0 0
M  V30 5 C 2.5024 1.5957 0.0 0
M  V30 6 C -2.72 1.5957 0.0 0
M  V30 7 C 3.7718 2.3694 0.0 0
M  V30 8 C 2.4661 0.1208 0.0 0
M  V30 9 C -4.0619 2.3694 0.0 0
M  V30 10 C -2.7563 0.1208 0.0 0
M  V30 11 C 5.0411 1.632 0.0 0
M  V30 12 C 3.7476 3.8927 0.0 0
M  V30 13 N 3.7355 -0.6044 0.0 0
M  V30 14 C -5.4038 1.6441 0.0 0
M  V30 15 C -4.0982 -0.6044 0.0 0
M  V30 16 N 6.3105 2.4057 0.0 0
M  V30 17 C 5.0049 0.1692 0.0 0
M  V30 18 N 5.017 4.6664 0.0 0
M  V30 19 C -5.4401 0.1692 0.0 0
M  V30 20 C 6.2863 3.9289 0.0 0
M  V30 END ATOM
M  V30 BEGIN BOND
M  V30 1 2 1 2
M  V30 2 1 2 3
M  V30 3 1 2 4
M  V30 4 1 3 5
M  V30 5 1 4 6
M  V30 6 1 5 7
M  V30 7 2 5 8
M  V30 8 1 6 9
M  V30 9 1 6 10
M  V30 10 1 7 11
M  V30 11 2 7 12
M  V30 12 1 8 13
M  V30 13 1 9 14
M  V30 14 1 10 15
M  V30 15 2 11 16
M  V30 16 1 11 17
M  V30 17 1 12 18
M  V30 18 1 14 19
M  V30 19 1 16 20
M  V30 20 2 13 17
M  V30 21 1 15 19
M  V30 22 2 18 20
M  V30 END BOND
M  V30 END CTAB
M  END
>  <Name>
SPE_0040

>  <Name_tmp>
x0678_04

>  <Smiles>
O=C(CC1CCCCC1)NC1=CN=CN2NC=CC=C12

>  <Residue Name>
S40

$$$$
SPE_0041
Actelion Java MolfileCreator 2.0

  0  0  0  0  0  0              0 V3000
M  V30 BEGIN CTAB
M  V30 COUNTS 20 22 0 0 0
M  V30 BEGIN ATOM
M  V30 1 O 0.0 0.0 0.0 0
M  V30 2 C -0.0239 1.5329 0.0 0
M  V30 3 N 1.2574 2.2994 0.0 0
M  V30 4 C -1.3533 2.2994 0.0 0
M  V30 5 C 2.5389 1.5688 0.0 0
M  V30 6 C -2.6826 1.5688 0.0 0
M  V30 7 C 3.8203 2.3353 0.0 0
M  V30 8 C 2.5149 0.0838 0.0 0
M  V30 9 C -4.0119 2.3353 0.0 0
M  V30 10 C -2.7066 0.0838 0.0 0
M  V30 11 C 5.1018 1.5928 0.0 0
M  V30 12 C 3.8084 3.8443 0.0 0
M  V30 13 N 3.7964 -0.6467 0.0 0
M  V30 14 C -5.3413 1.6047 0.0 0
M  V30 15 C -4.0359 -0.6467 0.0 0
M  V30 16 N 6.3832 2.3473 0.0 0
M  V30 17 C 5.0778 0.1197 0.0 0
M  V30 18 C 5.0898 4.5988 0.0 0
M  V30 19 C -5.3652 0.1197 0.0 0
M  V30 20 C 6.3712 3.8563 0.0 0
M  V30 END ATOM
M  V30 BEGIN BOND
M  V30 1 2 1 2
M  V30 2 1 2 3
M  V30 3 1 2 4
M  V30 4 1 3 5
M  V30 5 1 4 6
M  V30 6 1 5 7
M  V30 7 2 5 8
M  V30 8 1 6 9
M  V30 9 1 6 10
M  V30 10 1 7 11
M  V30 11 2 7 12
M  V30 12 1 8 13
M  V30 13 1 9 14
M  V30 14 1 10 15
M  V30 15 2 11 16
M  V30 16 1 11 17
M  V30 17 1 12 18
M  V30 18 1 14 19
M  V30 19 1 16 20
M  V30 20 2 13 17
M  V30 21 1 15 19
M  V30 22 2 18 20
M  V30 END BOND
M  V30 END CTAB
M  END
>  <Name>
SPE_0041

>  <Name_tmp>
x0678_05

>  <Smiles>
O=C(CC1CCCCC1)Nc1cncc2ncccc12

>  <Residue Name>
S41

$$$$
SPE_0042
Actelion Java MolfileCreator 2.0

  0  0  0  0  0  0              0 V3000
M  V30 BEGIN CTAB
M  V30 COUNTS 19 21 0 0 0
M  V30 BEGIN ATOM
M  V30 1 O 0.0 0.0 0.0 0
M  V30 2 C -0.0239 1.5325 0.0 0
M  V30 3 N 1.2571 2.2988 0.0 0
M  V30 4 C -1.3529 2.2988 0.0 0
M  V30 5 C 2.5382 1.5684 0.0 0
M  V30 6 C -2.6819 1.5684 0.0 0
M  V30 7 C 3.8193 2.3347 0.0 0
M  V30 8 C 2.5143 0.0838 0.0 0
M  V30 9 C -4.0109 2.3347 0.0 0
M  V30 10 C -2.7058 0.0838 0.0 0
M  V30 11 C 5.1004 1.5924 0.0 0
M  V30 12 C 4.1186 3.8074 0.0 0
M  V30 13 N 3.7954 -0.6465 0.0 0
M  V30 14 C -5.3399 1.6043 0.0 0
M  V30 15 C -4.0348 -0.6465 0.0 0
M  V30 16 N 6.2019 2.6101 0.0 0
M  V30 17 C 5.0765 0.1197 0.0 0
M  V30 18 C 5.5913 3.975 0.0 0
M  V30 19 C -5.3638 0.1197 0.0 0
M  V30 END ATOM
M  V30 BEGIN BOND
M  V30 1 2 1 2
M  V30 2 1 2 3
M  V30 3 1 2 4
M  V30 4 1 3 5
M  V30 5 1 4 6
M  V30 6 2 5 7
M  V30 7 1 5 8
M  V30 8 1 6 9
M  V30 9 1 6 10
M  V30 10 1 7 11
M  V30 11 1 7 12
M  V30 12 2 8 13
M  V30 13 1 9 14
M  V30 14 1 10 15
M  V30 15 1 11 16
M  V30 16 2 11 17
M  V30 17 2 12 18
M  V30 18 1 14 19
M  V30 19 1 13 17
M  V30 20 1 15 19
M  V30 21 1 16 18
M  V30 END BOND
M  V30 END CTAB
M  END
>  <Name>
SPE_0042

>  <Name_tmp>
x0678_06

>  <Smiles>
O=C(CC1CCCCC1)Nc1c(cc[nH]2)c2cnc1

>  <Residue Name>
S42

$$$$
SPE_0043
Actelion Java MolfileCreator 2.0

  0  0  0  0  0  0              0 V3000
M  V30 BEGIN CTAB
M  V30 COUNTS 19 21 0 0 0
M  V30 BEGIN ATOM
M  V30 1 O 0.0 0.0 0.0 0
M  V30 2 C -0.0239 1.5325 0.0 0
M  V30 3 N 1.2571 2.2988 0.0 0
M  V30 4 C -1.3529 2.2988 0.0 0
M  V30 5 C 2.5382 1.5684 0.0 0
M  V30 6 C -2.6819 1.5684 0.0 0
M  V30 7 C 3.8193 2.3347 0.0 0
M  V30 8 C 2.5143 0.0838 0.0 0
M  V30 9 C -4.0109 2.3347 0.0 0
M  V30 10 C -2.7058 0.0838 0.0 0
M  V30 11 N 5.1004 1.5924 0.0 0
M  V30 12 C 4.1186 3.8074 0.0 0
M  V30 13 N 3.7954 -0.6465 0.0 0
M  V30 14 C -5.3399 1.6043 0.0 0
M  V30 15 C -4.0348 -0.6465 0.0 0
M  V30 16 N 6.2019 2.6101 0.0 0
M  V30 17 C 5.0765 0.1197 0.0 0
M  V30 18 C 5.5913 3.975 0.0 0
M  V30 19 C -5.3638 0.1197 0.0 0
M  V30 END ATOM
M  V30 BEGIN BOND
M  V30 1 2 1 2
M  V30 2 1 2 3
M  V30 3 1 2 4
M  V30 4 1 3 5
M  V30 5 1 4 6
M  V30 6 1 5 7
M  V30 7 2 5 8
M  V30 8 1 6 9
M  V30 9 1 6 10
M  V30 10 1 7 11
M  V30 11 2 7 12
M  V30 12 1 8 13
M  V30 13 1 9 14
M  V30 14 1 10 15
M  V30 15 1 11 16
M  V30 16 1 11 17
M  V30 17 1 12 18
M  V30 18 1 14 19
M  V30 19 2 13 17
M  V30 20 1 15 19
M  V30 21 2 16 18
M  V30 END BOND
M  V30 END CTAB
M  END
>  <Name>
SPE_0043

>  <Name_tmp>
x0678_07

>  <Smiles>
O=C(CC1CCCCC1)Nc1cncn2nccc12

>  <Residue Name>
S43

$$$$
SPE_0044
Actelion Java MolfileCreator 2.0

  0  0  0  0  0  0              0 V3000
M  V30 BEGIN CTAB
M  V30 COUNTS 19 21 0 0 0
M  V30 BEGIN ATOM
M  V30 1 O 0.0 0.0 0.0 0
M  V30 2 C -0.0239 1.5325 0.0 0
M  V30 3 N 1.2571 2.2988 0.0 0
M  V30 4 C -1.3529 2.2988 0.0 0
M  V30 5 C 2.5382 1.5684 0.0 0
M  V30 6 C -2.6819 1.5684 0.0 0
M  V30 7 N 3.8193 2.3347 0.0 0
M  V30 8 C 2.5143 0.0838 0.0 0
M  V30 9 C -4.0109 2.3347 0.0 0
M  V30 10 C -2.7058 0.0838 0.0 0
M  V30 11 C 5.1004 1.5924 0.0 0
M  V30 12 C 4.1186 3.8074 0.0 0
M  V30 13 N 3.7954 -0.6465 0.0 0
M  V30 14 C -5.3399 1.6043 0.0 0
M  V30 15 C -4.0348 -0.6465 0.0 0
M  V30 16 N 6.2019 2.6101 0.0 0
M  V30 17 C 5.0765 0.1197 0.0 0
M  V30 18 C 5.5913 3.975 0.0 0
M  V30 19 C -5.3638 0.1197 0.0 0
M  V30 END ATOM
M  V30 BEGIN BOND
M  V30 1 2 1 2
M  V30 2 1 2 3
M  V30 3 1 2 4
M  V30 4 1 3 5
M  V30 5 1 4 6
M  V30 6 1 5 7
M  V30 7 2 5 8
M  V30 8 1 6 9
M  V30 9 1 6 10
M  V30 10 1 7 11
M  V30 11 1 7 12
M  V30 12 1 8 13
M  V30 13 1 9 14
M  V30 14 1 10 15
M  V30 15 2 11 16
M  V30 16 1 11 17
M  V30 17 2 12 18
M  V30 18 1 14 19
M  V30 19 2 13 17
M  V30 20 1 15 19
M  V30 21 1 16 18
M  V30 END BOND
M  V30 END CTAB
M  END
>  <Name>
SPE_0044

>  <Name_tmp>
x0678_08

>  <Smiles>
O=C(CC1CCCCC1)Nc1cncc2nccn12

>  <Residue Name>
S44

$$$$
SPE_0045
Actelion Java MolfileCreator 2.0

  0  0  0  0  0  0              0 V3000
M  V30 BEGIN CTAB
M  V30 COUNTS 19 21 0 0 0
M  V30 BEGIN ATOM
M  V30 1 O 0.0 0.0 0.0 0
M  V30 2 C -0.0239 1.5325 0.0 0
M  V30 3 N 1.2571 2.2988 0.0 0
M  V30 4 C -1.3529 2.2988 0.0 0
M  V30 5 C 2.5382 1.5684 0.0 0
M  V30 6 C -2.6819 1.5684 0.0 0
M  V30 7 C 3.8193 2.3347 0.0 0
M  V30 8 C 2.5143 0.0838 0.0 0
M  V30 9 C -4.0109 2.3347 0.0 0
M  V30 10 C -2.7058 0.0838 0.0 0
M  V30 11 N 4.1186 3.8074 0.0 0
M  V30 12 C 5.1004 1.5924 0.0 0
M  V30 13 N 3.7954 -0.6465 0.0 0
M  V30 14 C -5.3399 1.6043 0.0 0
M  V30 15 C -4.0348 -0.6465 0.0 0
M  V30 16 C 5.5913 3.975 0.0 0
M  V30 17 N 6.2019 2.6101 0.0 0
M  V30 18 C 5.0765 0.1197 0.0 0
M  V30 19 C -5.3638 0.1197 0.0 0
M  V30 END ATOM
M  V30 BEGIN BOND
M  V30 1 2 1 2
M  V30 2 1 2 3
M  V30 3 1 2 4
M  V30 4 1 3 5
M  V30 5 1 4 6
M  V30 6 2 5 7
M  V30 7 1 5 8
M  V30 8 1 6 9
M  V30 9 1 6 10
M  V30 10 1 7 11
M  V30 11 1 7 12
M  V30 12 2 8 13
M  V30 13 1 9 14
M  V30 14 1 10 15
M  V30 15 2 11 16
M  V30 16 1 12 17
M  V30 17 2 12 18
M  V30 18 1 14 19
M  V30 19 1 13 18
M  V30 20 1 15 19
M  V30 21 1 16 17
M  V30 END BOND
M  V30 END CTAB
M  END
>  <Name>
SPE_0045

>  <Name_tmp>
x0678_09

>  <Smiles>
O=C(CC1CCCCC1)Nc1c2nc[nH]c2cnc1

>  <Residue Name>
S45

$$$$
SPE_0046
Actelion Java MolfileCreator 2.0

  0  0  0  0  0  0              0 V3000
M  V30 BEGIN CTAB
M  V30 COUNTS 19 21 0 0 0
M  V30 BEGIN ATOM
M  V30 1 O 0.0 0.0 0.0 0
M  V30 2 C -0.0239 1.5325 0.0 0
M  V30 3 N 1.2571 2.2988 0.0 0
M  V30 4 C -1.3529 2.2988 0.0 0
M  V30 5 C 2.5382 1.5684 0.0 0
M  V30 6 C -2.6819 1.5684 0.0 0
M  V30 7 C 3.8193 2.3347 0.0 0
M  V30 8 C 2.5143 0.0838 0.0 0
M  V30 9 C -4.0109 2.3347 0.0 0
M  V30 10 C -2.7058 0.0838 0.0 0
M  V30 11 C 5.1004 1.5924 0.0 0
M  V30 12 C 4.1186 3.8074 0.0 0
M  V30 13 N 3.7954 -0.6465 0.0 0
M  V30 14 C -5.3399 1.6043 0.0 0
M  V30 15 C -4.0348 -0.6465 0.0 0
M  V30 16 N 6.2019 2.6101 0.0 0
M  V30 17 C 5.0765 0.1197 0.0 0
M  V30 18 N 5.5913 3.975 0.0 0
M  V30 19 C -5.3638 0.1197 0.0 0
M  V30 END ATOM
M  V30 BEGIN BOND
M  V30 1 2 1 2
M  V30 2 1 2 3
M  V30 3 1 2 4
M  V30 4 1 3 5
M  V30 5 1 4 6
M  V30 6 2 5 7
M  V30 7 1 5 8
M  V30 8 1 6 9
M  V30 9 1 6 10
M  V30 10 1 7 11
M  V30 11 1 7 12
M  V30 12 2 8 13
M  V30 13 1 9 14
M  V30 14 1 10 15
M  V30 15 1 11 16
M  V30 16 2 11 17
M  V30 17 2 12 18
M  V30 18 1 14 19
M  V30 19 1 13 17
M  V30 20 1 15 19
M  V30 21 1 16 18
M  V30 END BOND
M  V30 END CTAB
M  END
>  <Name>
SPE_0046

>  <Name_tmp>
x0678_10

>  <Smiles>
O=C(CC1CCCCC1)Nc1c(cn[nH]2)c2cnc1

>  <Residue Name>
S46

$$$$
SPE_0047
Actelion Java MolfileCreator 2.0

  0  0  0  0  0  0              0 V3000
M  V30 BEGIN CTAB
M  V30 COUNTS 20 22 0 0 0
M  V30 BEGIN ATOM
M  V30 1 O 0.0 0.0 0.0 0
M  V30 2 C -0.0362 1.5474 0.0 0
M  V30 3 N 1.233 2.3211 0.0 0
M  V30 4 C -1.3781 2.3211 0.0 0
M  V30 5 C 2.5024 1.5957 0.0 0
M  V30 6 C -2.72 1.5957 0.0 0
M  V30 7 C 3.7718 2.3694 0.0 0
M  V30 8 C 2.4661 0.1208 0.0 0
M  V30 9 C -4.0619 2.3694 0.0 0
M  V30 10 C -2.7563 0.1208 0.0 0
M  V30 11 N 3.7476 3.8927 0.0 0
M  V30 12 C 5.0411 1.632 0.0 0
M  V30 13 N 3.7355 -0.6044 0.0 0
M  V30 14 C -5.4038 1.6441 0.0 0
M  V30 15 C -4.0982 -0.6044 0.0 0
M  V30 16 C 5.017 4.6664 0.0 0
M  V30 17 N 6.3105 2.4057 0.0 0
M  V30 18 C 5.0049 0.1692 0.0 0
M  V30 19 C -5.4401 0.1692 0.0 0
M  V30 20 C 6.2863 3.9289 0.0 0
M  V30 END ATOM
M  V30 BEGIN BOND
M  V30 1 2 1 2
M  V30 2 1 2 3
M  V30 3 1 2 4
M  V30 4 1 3 5
M  V30 5 1 4 6
M  V30 6 1 5 7
M  V30 7 2 5 8
M  V30 8 1 6 9
M  V30 9 1 6 10
M  V30 10 2 7 11
M  V30 11 1 7 12
M  V30 12 1 8 13
M  V30 13 1 9 14
M  V30 14 1 10 15
M  V30 15 1 11 16
M  V30 16 2 12 17
M  V30 17 1 12 18
M  V30 18 1 14 19
M  V30 19 2 16 20
M  V30 20 2 13 18
M  V30 21 1 15 19
M  V30 22 1 17 20
M  V30 END BOND
M  V30 END CTAB
M  END
>  <Name>
SPE_0047

>  <Name_tmp>
x0678_11

>  <Smiles>
O=C(CC1CCCCC1)NC1=CNC=C2N=CC=CN12

>  <Residue Name>
S47

$$$$
