SPE_0072
Actelion Java MolfileCreator 2.0

  0  0  0  0  0  0              0 V3000
M  V30 BEGIN CTAB
M  V30 COUNTS 19 21 0 0 0
M  V30 BEGIN ATOM
M  V30 1 O 2.598 0.0 0.0 0
M  V30 2 C 1.732 -0.5 0.0 0
M  V30 3 N 1.732 -1.5 0.0 0
M  V30 4 C 0.866 0.0 0.0 0
M  V30 5 C 0.866 -1.9999 0.0 0
M  V30 6 C 2.598 -2.0 0.0 0
M  V30 7 C 0.0 -0.5 0.0 0
M  V30 8 C 0.866 -2.9999 0.0 0
M  V30 9 C 2.598 -3.0 0.0 0
M  V30 10 C -0.9135 -0.0932 0.0 0
M  V30 11 C -0.1045 -1.4945 0.0 0
M  V30 12 N 1.732 -3.5 0.0 0 VAL=4
M  V30 13 C -1.5826 -0.8364 0.0 0
M  V30 14 C -1.2225 0.8577 0.0 0
M  V30 15 N -1.0826 -1.7024 0.0 0
M  V30 16 C 1.732 -4.5 0.0 0
M  V30 17 N -2.5608 -0.6284 0.0 0
M  V30 18 C -2.2007 1.0657 0.0 0
M  V30 19 C -2.8698 0.3225 0.0 0
M  V30 END ATOM
M  V30 BEGIN BOND
M  V30 1 2 1 2
M  V30 2 1 2 3
M  V30 3 1 2 4
M  V30 4 1 3 5
M  V30 5 1 3 6
M  V30 6 1 4 7
M  V30 7 1 5 8
M  V30 8 1 6 9
M  V30 9 1 7 10
M  V30 10 2 7 11
M  V30 11 1 8 12
M  V30 12 2 10 13
M  V30 13 1 10 14
M  V30 14 1 11 15
M  V30 15 1 12 16
M  V30 16 1 13 17
M  V30 17 2 14 18
M  V30 18 2 17 19
M  V30 19 1 9 12
M  V30 20 1 13 15
M  V30 21 1 18 19
M  V30 END BOND
M  V30 END CTAB
M  END
>  <Smiles>
C[NH]1CCN(CC1)C(=O)Cc1c[nH]c2c1cccn2

>  <Name>
SPE_0072

>  <Name_tmp>


>  <Residue Name>
S72

$$$$
SPE_0073
Actelion Java MolfileCreator 2.0

  0  0  0  0  0  0              0 V3000
M  V30 BEGIN CTAB
M  V30 COUNTS 19 21 0 0 0
M  V30 BEGIN ATOM
M  V30 1 O 2.598 0.0 0.0 0
M  V30 2 C 1.732 -0.5 0.0 0
M  V30 3 N 1.732 -1.5 0.0 0
M  V30 4 C 0.866 0.0 0.0 0
M  V30 5 C 0.866 -1.9999 0.0 0
M  V30 6 C 2.598 -2.0 0.0 0
M  V30 7 C 0.0 -0.5 0.0 0
M  V30 8 C 0.866 -2.9999 0.0 0
M  V30 9 C 2.598 -3.0 0.0 0
M  V30 10 C -0.9135 -0.0932 0.0 0
M  V30 11 C -0.1045 -1.4945 0.0 0
M  V30 12 N 1.732 -3.5 0.0 0 VAL=4
M  V30 13 C -1.5826 -0.8364 0.0 0
M  V30 14 C -1.2225 0.8577 0.0 0
M  V30 15 N -1.0826 -1.7024 0.0 0
M  V30 16 C 1.732 -4.5 0.0 0
M  V30 17 N -2.5608 -0.6284 0.0 0
M  V30 18 N -2.2007 1.0657 0.0 0
M  V30 19 C -2.8698 0.3225 0.0 0
M  V30 END ATOM
M  V30 BEGIN BOND
M  V30 1 2 1 2
M  V30 2 1 2 3
M  V30 3 1 2 4
M  V30 4 1 3 5
M  V30 5 1 3 6
M  V30 6 1 4 7
M  V30 7 1 5 8
M  V30 8 1 6 9
M  V30 9 1 7 10
M  V30 10 2 7 11
M  V30 11 1 8 12
M  V30 12 2 10 13
M  V30 13 1 10 14
M  V30 14 1 11 15
M  V30 15 1 12 16
M  V30 16 1 13 17
M  V30 17 2 14 18
M  V30 18 2 17 19
M  V30 19 1 9 12
M  V30 20 1 13 15
M  V30 21 1 18 19
M  V30 END BOND
M  V30 END CTAB
M  END
>  <Smiles>
C[NH]1CCN(CC1)C(=O)Cc1c[nH]c2c1cncn2

>  <Name>
SPE_0073

>  <Name_tmp>


>  <Residue Name>
S73

$$$$
SPE_0074
Actelion Java MolfileCreator 2.0

  0  0  0  0  0  0              0 V3000
M  V30 BEGIN CTAB
M  V30 COUNTS 19 21 0 0 0
M  V30 BEGIN ATOM
M  V30 1 O 2.598 0.0 0.0 0
M  V30 2 C 1.732 -0.5 0.0 0
M  V30 3 N 1.732 -1.5 0.0 0
M  V30 4 C 0.866 0.0 0.0 0
M  V30 5 C 0.866 -1.9999 0.0 0
M  V30 6 C 2.598 -2.0 0.0 0
M  V30 7 C 0.0 -0.5 0.0 0
M  V30 8 C 0.866 -2.9999 0.0 0
M  V30 9 C 2.598 -3.0 0.0 0
M  V30 10 C -0.9135 -0.0932 0.0 0
M  V30 11 C -0.1045 -1.4945 0.0 0
M  V30 12 N 1.732 -3.5 0.0 0 VAL=4
M  V30 13 N -1.2225 0.8577 0.0 0
M  V30 14 C -1.5826 -0.8364 0.0 0
M  V30 15 N -1.0826 -1.7024 0.0 0
M  V30 16 C 1.732 -4.5 0.0 0
M  V30 17 C -2.2007 1.0657 0.0 0
M  V30 18 N -2.5608 -0.6284 0.0 0
M  V30 19 C -2.8698 0.3225 0.0 0
M  V30 END ATOM
M  V30 BEGIN BOND
M  V30 1 2 1 2
M  V30 2 1 2 3
M  V30 3 1 2 4
M  V30 4 1 3 5
M  V30 5 1 3 6
M  V30 6 1 4 7
M  V30 7 1 5 8
M  V30 8 1 6 9
M  V30 9 1 7 10
M  V30 10 2 7 11
M  V30 11 1 8 12
M  V30 12 2 10 13
M  V30 13 1 10 14
M  V30 14 1 11 15
M  V30 15 1 12 16
M  V30 16 1 13 17
M  V30 17 2 14 18
M  V30 18 2 17 19
M  V30 19 1 9 12
M  V30 20 1 14 15
M  V30 21 1 18 19
M  V30 END BOND
M  V30 END CTAB
M  END
>  <Smiles>
C[NH]1CCN(CC1)C(=O)Cc1c[nH]c2c1nccn2

>  <Name>
SPE_0074

>  <Name_tmp>


>  <Residue Name>
S74

$$$$
SPE_0075
Actelion Java MolfileCreator 2.0

  0  0  0  0  0  0              0 V3000
M  V30 BEGIN CTAB
M  V30 COUNTS 20 22 0 0 0
M  V30 BEGIN ATOM
M  V30 1 F 3.7195 -1.3848 0.0 0
M  V30 2 C 3.5116 -0.4067 0.0 0
M  V30 3 N 4.1807 0.3364 0.0 0
M  V30 4 C 2.598 0.0 0.0 0
M  V30 5 C 3.6807 1.2024 0.0 0
M  V30 6 C 2.7026 0.9945 0.0 0
M  V30 7 C 1.732 -0.5 0.0 0
M  V30 8 N 3.9897 2.1534 0.0 0
M  V30 9 C 2.0334 1.7376 0.0 0
M  V30 10 C 0.866 0.0 0.0 0
M  V30 11 C 3.3206 2.8966 0.0 0
M  V30 12 C 2.3424 2.6887 0.0 0
M  V30 13 O 0.866 1.0 0.0 0
M  V30 14 N 0.0 -0.5 0.0 0
M  V30 15 C -0.866 0.0 0.0 0
M  V30 16 C 0.0 -1.4999 0.0 0
M  V30 17 C -1.732 -0.4999 0.0 0
M  V30 18 C -0.866 -1.9999 0.0 0
M  V30 19 N -1.732 -1.4999 0.0 0 VAL=4
M  V30 20 C -2.598 -1.9999 0.0 0
M  V30 END ATOM
M  V30 BEGIN BOND
M  V30 1 1 1 2
M  V30 2 1 2 3
M  V30 3 2 2 4
M  V30 4 1 3 5
M  V30 5 1 4 6
M  V30 6 1 4 7
M  V30 7 1 5 8
M  V30 8 1 6 9
M  V30 9 1 7 10
M  V30 10 2 8 11
M  V30 11 2 9 12
M  V30 12 2 10 13
M  V30 13 1 10 14
M  V30 14 1 14 15
M  V30 15 1 14 16
M  V30 16 1 15 17
M  V30 17 1 16 18
M  V30 18 1 17 19
M  V30 19 1 19 20
M  V30 20 2 5 6
M  V30 21 1 11 12
M  V30 22 1 18 19
M  V30 END BOND
M  V30 END CTAB
M  END
>  <Smiles>
C[NH]1CCN(CC1)C(=O)Cc1c(F)[nH]c2c1cccn2

>  <Name>
SPE_0075

>  <Name_tmp>


>  <Residue Name>
S75

$$$$
SPE_0076
Actelion Java MolfileCreator 2.0

  0  0  0  0  0  0              0 V3000
M  V30 BEGIN CTAB
M  V30 COUNTS 20 22 0 0 0
M  V30 BEGIN ATOM
M  V30 1 F 3.7195 -1.3848 0.0 0
M  V30 2 C 3.5116 -0.4067 0.0 0
M  V30 3 N 4.1807 0.3364 0.0 0
M  V30 4 C 2.598 0.0 0.0 0
M  V30 5 C 3.6807 1.2024 0.0 0
M  V30 6 C 2.7026 0.9945 0.0 0
M  V30 7 C 1.732 -0.5 0.0 0
M  V30 8 N 3.9897 2.1534 0.0 0
M  V30 9 C 2.0334 1.7376 0.0 0
M  V30 10 C 0.866 0.0 0.0 0
M  V30 11 C 3.3206 2.8966 0.0 0
M  V30 12 N 2.3424 2.6887 0.0 0
M  V30 13 O 0.866 1.0 0.0 0
M  V30 14 N 0.0 -0.5 0.0 0
M  V30 15 C -0.866 0.0 0.0 0
M  V30 16 C 0.0 -1.4999 0.0 0
M  V30 17 C -1.732 -0.4999 0.0 0
M  V30 18 C -0.866 -1.9999 0.0 0
M  V30 19 N -1.732 -1.4999 0.0 0 VAL=4
M  V30 20 C -2.598 -1.9999 0.0 0
M  V30 END ATOM
M  V30 BEGIN BOND
M  V30 1 1 1 2
M  V30 2 1 2 3
M  V30 3 2 2 4
M  V30 4 1 3 5
M  V30 5 1 4 6
M  V30 6 1 4 7
M  V30 7 1 5 8
M  V30 8 1 6 9
M  V30 9 1 7 10
M  V30 10 2 8 11
M  V30 11 2 9 12
M  V30 12 2 10 13
M  V30 13 1 10 14
M  V30 14 1 14 15
M  V30 15 1 14 16
M  V30 16 1 15 17
M  V30 17 1 16 18
M  V30 18 1 17 19
M  V30 19 1 19 20
M  V30 20 2 5 6
M  V30 21 1 11 12
M  V30 22 1 18 19
M  V30 END BOND
M  V30 END CTAB
M  END
>  <Smiles>
C[NH]1CCN(CC1)C(=O)Cc1c(F)[nH]c2c1cncn2

>  <Name>
SPE_0076

>  <Name_tmp>


>  <Residue Name>
S76

$$$$
SPE_0077
Actelion Java MolfileCreator 2.0

  0  0  0  0  0  0              0 V3000
M  V30 BEGIN CTAB
M  V30 COUNTS 20 22 0 0 0
M  V30 BEGIN ATOM
M  V30 1 F 3.7195 -1.3848 0.0 0
M  V30 2 C 3.5116 -0.4067 0.0 0
M  V30 3 N 4.1807 0.3364 0.0 0
M  V30 4 C 2.598 0.0 0.0 0
M  V30 5 C 3.6807 1.2024 0.0 0
M  V30 6 C 2.7026 0.9945 0.0 0
M  V30 7 C 1.732 -0.5 0.0 0
M  V30 8 N 3.9897 2.1534 0.0 0
M  V30 9 N 2.0334 1.7376 0.0 0
M  V30 10 C 0.866 0.0 0.0 0
M  V30 11 C 3.3206 2.8966 0.0 0
M  V30 12 C 2.3424 2.6887 0.0 0
M  V30 13 O 0.866 1.0 0.0 0
M  V30 14 N 0.0 -0.5 0.0 0
M  V30 15 C -0.866 0.0 0.0 0
M  V30 16 C 0.0 -1.4999 0.0 0
M  V30 17 C -1.732 -0.4999 0.0 0
M  V30 18 C -0.866 -1.9999 0.0 0
M  V30 19 N -1.732 -1.4999 0.0 0 VAL=4
M  V30 20 C -2.598 -1.9999 0.0 0
M  V30 END ATOM
M  V30 BEGIN BOND
M  V30 1 1 1 2
M  V30 2 1 2 3
M  V30 3 2 2 4
M  V30 4 1 3 5
M  V30 5 1 4 6
M  V30 6 1 4 7
M  V30 7 1 5 8
M  V30 8 1 6 9
M  V30 9 1 7 10
M  V30 10 2 8 11
M  V30 11 2 9 12
M  V30 12 2 10 13
M  V30 13 1 10 14
M  V30 14 1 14 15
M  V30 15 1 14 16
M  V30 16 1 15 17
M  V30 17 1 16 18
M  V30 18 1 17 19
M  V30 19 1 19 20
M  V30 20 2 5 6
M  V30 21 1 11 12
M  V30 22 1 18 19
M  V30 END BOND
M  V30 END CTAB
M  END
>  <Smiles>
C[NH]1CCN(CC1)C(=O)Cc1c(F)[nH]c2c1nccn2

>  <Name>
SPE_0077

>  <Name_tmp>


>  <Residue Name>
S77

$$$$
SPE_0080
Actelion Java MolfileCreator 2.0

  0  0  0  0  0  0              0 V3000
M  V30 BEGIN CTAB
M  V30 COUNTS 20 22 0 0 0
M  V30 BEGIN ATOM
M  V30 1 Cl 3.7195 -1.3848 0.0 0
M  V30 2 C 3.5116 -0.4067 0.0 0
M  V30 3 N 4.1807 0.3364 0.0 0
M  V30 4 C 2.598 0.0 0.0 0
M  V30 5 C 3.6807 1.2024 0.0 0
M  V30 6 C 2.7026 0.9945 0.0 0
M  V30 7 C 1.732 -0.5 0.0 0
M  V30 8 N 3.9897 2.1534 0.0 0
M  V30 9 C 2.0334 1.7376 0.0 0
M  V30 10 C 0.866 0.0 0.0 0
M  V30 11 C 3.3206 2.8966 0.0 0
M  V30 12 C 2.3424 2.6887 0.0 0
M  V30 13 O 0.866 1.0 0.0 0
M  V30 14 N 0.0 -0.5 0.0 0
M  V30 15 C -0.866 0.0 0.0 0
M  V30 16 C 0.0 -1.4999 0.0 0
M  V30 17 C -1.732 -0.4999 0.0 0
M  V30 18 C -0.866 -1.9999 0.0 0
M  V30 19 N -1.732 -1.4999 0.0 0 VAL=4
M  V30 20 C -2.598 -1.9999 0.0 0
M  V30 END ATOM
M  V30 BEGIN BOND
M  V30 1 1 1 2
M  V30 2 1 2 3
M  V30 3 2 2 4
M  V30 4 1 3 5
M  V30 5 1 4 6
M  V30 6 1 4 7
M  V30 7 1 5 8
M  V30 8 1 6 9
M  V30 9 1 7 10
M  V30 10 2 8 11
M  V30 11 2 9 12
M  V30 12 2 10 13
M  V30 13 1 10 14
M  V30 14 1 14 15
M  V30 15 1 14 16
M  V30 16 1 15 17
M  V30 17 1 16 18
M  V30 18 1 17 19
M  V30 19 1 19 20
M  V30 20 2 5 6
M  V30 21 1 11 12
M  V30 22 1 18 19
M  V30 END BOND
M  V30 END CTAB
M  END
>  <Smiles>
C[NH]1CCN(CC1)C(=O)Cc1c(Cl)[nH]c2c1cccn2

>  <Name>
SPE_0080

>  <Name_tmp>


>  <Residue Name>
S80

$$$$
SPE_0090
Actelion Java MolfileCreator 2.0

  0  0  0  0  0  0              0 V3000
M  V30 BEGIN CTAB
M  V30 COUNTS 20 22 0 0 0
M  V30 BEGIN ATOM
M  V30 1 Cl 3.7195 -1.3848 0.0 0
M  V30 2 C 3.5116 -0.4067 0.0 0
M  V30 3 N 4.1807 0.3364 0.0 0
M  V30 4 C 2.598 0.0 0.0 0
M  V30 5 C 3.6807 1.2024 0.0 0
M  V30 6 C 2.7026 0.9945 0.0 0
M  V30 7 C 1.732 -0.5 0.0 0
M  V30 8 N 3.9897 2.1534 0.0 0
M  V30 9 C 2.0334 1.7376 0.0 0
M  V30 10 C 0.866 0.0 0.0 0
M  V30 11 C 3.3206 2.8966 0.0 0
M  V30 12 N 2.3424 2.6887 0.0 0
M  V30 13 O 0.866 1.0 0.0 0
M  V30 14 N 0.0 -0.5 0.0 0
M  V30 15 C -0.866 0.0 0.0 0
M  V30 16 C 0.0 -1.4999 0.0 0
M  V30 17 C -1.732 -0.4999 0.0 0
M  V30 18 C -0.866 -1.9999 0.0 0
M  V30 19 N -1.732 -1.4999 0.0 0 VAL=4
M  V30 20 C -2.598 -1.9999 0.0 0
M  V30 END ATOM
M  V30 BEGIN BOND
M  V30 1 1 1 2
M  V30 2 1 2 3
M  V30 3 2 2 4
M  V30 4 1 3 5
M  V30 5 1 4 6
M  V30 6 1 4 7
M  V30 7 1 5 8
M  V30 8 1 6 9
M  V30 9 1 7 10
M  V30 10 2 8 11
M  V30 11 2 9 12
M  V30 12 2 10 13
M  V30 13 1 10 14
M  V30 14 1 14 15
M  V30 15 1 14 16
M  V30 16 1 15 17
M  V30 17 1 16 18
M  V30 18 1 17 19
M  V30 19 1 19 20
M  V30 20 2 5 6
M  V30 21 1 11 12
M  V30 22 1 18 19
M  V30 END BOND
M  V30 END CTAB
M  END
>  <Smiles>
C[NH]1CCN(CC1)C(=O)Cc1c(Cl)[nH]c2c1cncn2

>  <Name>
SPE_0090

>  <Name_tmp>


>  <Residue Name>
S90

$$$$
SPE_0091
Actelion Java MolfileCreator 2.0

  0  0  0  0  0  0              0 V3000
M  V30 BEGIN CTAB
M  V30 COUNTS 20 22 0 0 0
M  V30 BEGIN ATOM
M  V30 1 Cl 3.7195 -1.3848 0.0 0
M  V30 2 C 3.5116 -0.4067 0.0 0
M  V30 3 N 4.1807 0.3364 0.0 0
M  V30 4 C 2.598 0.0 0.0 0
M  V30 5 C 3.6807 1.2024 0.0 0
M  V30 6 C 2.7026 0.9945 0.0 0
M  V30 7 C 1.732 -0.5 0.0 0
M  V30 8 N 3.9897 2.1534 0.0 0
M  V30 9 N 2.0334 1.7376 0.0 0
M  V30 10 C 0.866 0.0 0.0 0
M  V30 11 C 3.3206 2.8966 0.0 0
M  V30 12 C 2.3424 2.6887 0.0 0
M  V30 13 O 0.866 1.0 0.0 0
M  V30 14 N 0.0 -0.5 0.0 0
M  V30 15 C -0.866 0.0 0.0 0
M  V30 16 C 0.0 -1.4999 0.0 0
M  V30 17 C -1.732 -0.4999 0.0 0
M  V30 18 C -0.866 -1.9999 0.0 0
M  V30 19 N -1.732 -1.4999 0.0 0 VAL=4
M  V30 20 C -2.598 -1.9999 0.0 0
M  V30 END ATOM
M  V30 BEGIN BOND
M  V30 1 1 1 2
M  V30 2 1 2 3
M  V30 3 2 2 4
M  V30 4 1 3 5
M  V30 5 1 4 6
M  V30 6 1 4 7
M  V30 7 1 5 8
M  V30 8 1 6 9
M  V30 9 1 7 10
M  V30 10 2 8 11
M  V30 11 2 9 12
M  V30 12 2 10 13
M  V30 13 1 10 14
M  V30 14 1 14 15
M  V30 15 1 14 16
M  V30 16 1 15 17
M  V30 17 1 16 18
M  V30 18 1 17 19
M  V30 19 1 19 20
M  V30 20 2 5 6
M  V30 21 1 11 12
M  V30 22 1 18 19
M  V30 END BOND
M  V30 END CTAB
M  END
>  <Smiles>
C[NH]1CCN(CC1)C(=O)Cc1c(Cl)[nH]c2c1nccn2

>  <Name>
SPE_0091

>  <Name_tmp>


>  <Residue Name>
S91

$$$$
