@<TRIPOS>MOLECULE
Cpptraj Generated mol2 file.
   38    40     1     0     0
SMALL
USER_CHARGES


@<TRIPOS>ATOM
      1 O1          9.3715    1.1426   20.9775 o          1 S40     -0.575100
      2 C1          8.8113    0.4325   21.8095 c          1 S40      0.667100
      3 C2          9.4163   -0.0198   23.1193 c3         1 S40     -0.153400
      4 C3         10.9435   -0.0024   23.0372 c3         1 S40     -0.062700
      5 C4         11.4335   -1.0383   22.0214 c3         1 S40     -0.074900
      6 C5         12.6194   -1.8502   22.5285 c3         1 S40     -0.075400
      7 C6         13.6490   -0.9932   23.2450 c3         1 S40     -0.077400
      8 C7         13.0403   -0.1270   24.3444 c3         1 S40     -0.075400
      9 C8         11.5266   -0.2704   24.4235 c3         1 S40     -0.074900
     10 N1          7.4836    0.0487   21.6056 ns         1 S40     -0.469100
     11 C9          6.7844    0.4249   20.4415 ca         1 S40     -0.004700
     12 C10         5.5460    1.1090   20.5676 ca         1 S40     -0.283600
     13 C11         4.7975    1.3607   19.4071 ca         1 S40      0.313300
     14 C12         5.3614    0.9973   18.1388 ca         1 S40      0.336900
     15 N2          6.5557    0.4361   18.0286 nb         1 S40     -0.621000
     16 C13         7.2582    0.1352   19.1709 ca         1 S40      0.349200
     17 H22         9.0597   -1.0321   23.4192 hc         1 S40      0.075700
     18 H23         9.0485    0.6636   23.9193 hc         1 S40      0.075700
     19 H3         11.2777    1.0161   22.7105 hc         1 S40      0.067700
     20 H42        10.6259   -1.7410   21.7170 hc         1 S40      0.039200
     21 H43        11.6877   -0.5247   21.0764 hc         1 S40      0.039200
     22 H52        13.1043   -2.3750   21.6801 hc         1 S40      0.043200
     23 H53        12.2709   -2.6661   23.1977 hc         1 S40      0.043200
     24 H62        14.4389   -1.6502   23.6673 hc         1 S40      0.043700
     25 H63        14.1783   -0.3567   22.5089 hc         1 S40      0.043700
     26 H72        13.5075   -0.3750   25.3179 hc         1 S40      0.043200
     27 H73        13.3030    0.9397   24.1736 hc         1 S40      0.043200
     28 H82        11.1090    0.4344   25.1730 hc         1 S40      0.039200
     29 H83        11.2312   -1.2729   24.7935 hc         1 S40      0.039200
     30 H1          6.9657   -0.5048   22.2957 hn         1 S40      0.319500
     31 C16         4.9896    1.5713   21.8079 ca         1 S40      0.448200
     32 N3          3.5373    1.9334   19.4597 nb         1 S40     -0.661000
     33 H12         4.8144    1.2038   17.2099 h4         1 S40      0.046100
     34 H13         8.2217   -0.3686   18.9960 h4         1 S40      0.069100
     35 C14         3.1064    2.3059   20.6645 ca         1 S40      0.629900
     36 N5          3.8129    2.1750   21.8618 nb         1 S40     -0.687000
     37 H14         2.0900    2.7593   20.7399 h5         1 S40      0.061100
     38 H16         5.5174    1.4326   22.7725 h4         1 S40      0.019100
@<TRIPOS>BOND
    1    35    36 1
    2    32    35 1
    3    31    36 1
    4    15    16 1
    5    14    15 1
    6    13    14 1
    7    13    32 1
    8    12    13 1
    9    12    31 1
   10    11    12 1
   11    11    16 1
   12    10    11 1
   13     8     9 1
   14     7     8 1
   15     6     7 1
   16     5     6 1
   17     4     5 1
   18     4     9 1
   19     3     4 1
   20     2     3 1
   21     2    10 1
   22     1     2 1
   23    35    37 1
   24    31    38 1
   25    16    34 1
   26    14    33 1
   27    10    30 1
   28     9    28 1
   29     9    29 1
   30     8    26 1
   31     8    27 1
   32     7    24 1
   33     7    25 1
   34     6    22 1
   35     6    23 1
   36     5    20 1
   37     5    21 1
   38     4    19 1
   39     3    17 1
   40     3    18 1
@<TRIPOS>SUBSTRUCTURE
      1 S40               1 ****               0 ****  **** 
