@<TRIPOS>MOLECULE
S28
   31    33     1     0     1 
SMALL
USER_CHARGES
@<TRIPOS>ATOM
  1 O1      9.098000    0.717000   20.863000 o     1 S28    -0.6021 ****
  2 C1      8.544000   -0.200000   21.373000 c     1 S28     0.7851 ****
  3 N1      9.181000   -0.926000   22.445000 ns    1 S28    -0.4641 ****
  4 C2     10.466000   -0.447000   22.851000 ca    1 S28     0.0596 ****
  5 C3     10.500000    0.387000   23.949000 ca    1 S28    -0.1555 ****
  6 C4     11.704000    0.900000   24.365000 ca    1 S28    -0.1075 ****
  7 C5     12.865000    0.584000   23.673000 ca    1 S28    -0.1470 ****
  8 C6     12.823000   -0.250000   22.569000 ca    1 S28    -0.1075 ****
  9 C7     11.612000   -0.763000   22.147000 ca    1 S28    -0.1555 ****
 10 N2      7.237000   -0.626000   20.941000 ns    1 S28    -0.4831 ****
 11 C8      6.559000    0.058000   19.874000 ca    1 S28     0.0013 ****
 12 C9      5.353000    0.683000   20.152000 ca    1 S28    -0.2796 ****
 13 C10     4.726000    1.339000   19.105000 ca    1 S28     0.3113 ****
 14 C11     5.321000    1.305000   17.849000 ca    1 S28     0.3429 ****
 15 N3      6.472000    0.710000   17.644000 nb    1 S28    -0.6230 ****
 16 C12     7.103000    0.084000   18.602000 ca    1 S28     0.3632 ****
 17 H1      8.745000   -1.725000   22.883000 hn    1 S28     0.3095 ****
 18 H3      9.590000    0.634000   24.476000 ha    1 S28     0.1490 ****
 19 H4     11.747000    1.548000   25.228000 ha    1 S28     0.1360 ****
 20 H5     13.810000    0.993000   23.999000 ha    1 S28     0.1360 ****
 21 H6     13.732000   -0.498000   22.041000 ha    1 S28     0.1360 ****
 22 H7     11.562000   -1.403000   21.278000 ha    1 S28     0.1490 ****
 23 H2      6.793000   -1.413000   21.392000 hn    1 S28     0.3175 ****
 24 N4      3.716000    2.291000   19.314000 nb    1 S28    -0.6600 ****
 25 H11     4.822000    1.782000   17.019000 h4    1 S28     0.0471 ****
 26 H12     8.043000   -0.410000   18.402000 h4    1 S28     0.0671 ****
 27 C15     4.855000    0.899000   21.455000 ca    1 S28     0.4482 ****
 28 H15     5.368000    0.474000   22.319000 h4    1 S28     0.0201 ****
 29 N5      3.794000    1.812000   21.665000 nb    1 S28    -0.6850 ****
 30 C13     3.189000    2.470000   20.583000 ca    1 S28     0.6309 ****
 31 H13     2.481000    3.295000   20.722000 h5    1 S28     0.0611 ****
@<TRIPOS>BOND
    1     1     2 1
    2     2     3 1
    3     2    10 1
    4     3     4 1
    5     3    17 1
    6     4     5 1
    7     4     9 1
    8     5     6 1
    9     5    18 1
   10     6     7 1
   11     6    19 1
   12     7     8 1
   13     7    20 1
   14     8     9 1
   15     8    21 1
   16     9    22 1
   17    10    11 1
   18    10    23 1
   19    11    12 1
   20    11    16 1
   21    12    13 1
   22    12    27 1
   23    13    14 1
   24    13    24 1
   25    14    15 1
   26    14    25 1
   27    15    16 1
   28    16    26 1
   29    24    30 1
   30    27    28 1
   31    27    29 1
   32    29    30 1
   33    30    31 1
@<TRIPOS>SUBSTRUCTURE
      1  S28              1 ****               0 ****  **** 
