@<TRIPOS>MOLECULE
Cpptraj Generated mol2 file.
   31    33     1     0     0
SMALL
USER_CHARGES


@<TRIPOS>ATOM
      1 O1          8.8944    1.0056   20.7600 o          1 S28     -0.602100
      2 C1          8.4056    0.0639   21.4061 c          1 S28      0.785100
      3 N1          9.1333   -0.6870   22.3175 ns         1 S28     -0.464100
      4 C2         10.4518   -0.2433   22.6371 ca         1 S28      0.059600
      5 C3         10.6006    0.8962   23.4290 ca         1 S28     -0.155500
      6 C4         11.8789    1.3651   23.6994 ca         1 S28     -0.107500
      7 C5         12.9864    0.6995   23.1895 ca         1 S28     -0.147000
      8 C6         12.8252   -0.4535   22.4310 ca         1 S28     -0.107500
      9 C7         11.5564   -0.9376   22.1425 ca         1 S28     -0.155500
     10 N2          7.0454   -0.2724   21.2542 ns         1 S28     -0.483100
     11 C8          6.3439    0.2847   20.1664 ca         1 S28      0.001300
     12 C9          5.2010    1.0946   20.3916 ca         1 S28     -0.279600
     13 C10         4.4351    1.4895   19.2833 ca         1 S28      0.311300
     14 C11         4.9220    1.1732   17.9709 ca         1 S28      0.342900
     15 N3          6.0382    0.4894   17.7697 nb         1 S28     -0.623000
     16 C12         6.7360    0.0296   18.8613 ca         1 S28      0.363200
     17 H1          8.8009   -1.5661   22.7100 hn         1 S28      0.309500
     18 H3          9.7249    1.4224   23.8268 ha         1 S28      0.149000
     19 H4         12.0024    2.2722   24.2999 ha         1 S28      0.136000
     20 H5         13.9880    1.1026   23.3572 ha         1 S28      0.136000
     21 H6         13.7020   -0.9750   22.0359 ha         1 S28      0.136000
     22 H7         11.4261   -1.8357   21.5281 ha         1 S28      0.149000
     23 H2          6.5128   -0.7817   21.9623 hn         1 S28      0.317500
     24 N4          3.2264    2.1512   19.4297 nb         1 S28     -0.660000
     25 H11         4.3843    1.5303   17.0822 h4         1 S28      0.047100
     26 H12         7.6346   -0.5606   18.6171 h4         1 S28      0.067100
     27 C15         4.7552    1.5498   21.6784 ca         1 S28      0.448200
     28 H15         5.3283    1.3274   22.6001 h4         1 S28      0.020100
     29 N5          3.6409    2.2467   21.8212 nb         1 S28     -0.685000
     30 C13         2.8829    2.4914   20.6721 ca         1 S28      0.630900
     31 H13         1.9094    3.0187   20.8212 h5         1 S28      0.061100
@<TRIPOS>BOND
    1    29    30 1
    2    27    29 1
    3    24    30 1
    4    15    16 1
    5    14    15 1
    6    13    14 1
    7    13    24 1
    8    12    13 1
    9    12    27 1
   10    11    12 1
   11    11    16 1
   12    10    11 1
   13     8     9 1
   14     7     8 1
   15     6     7 1
   16     5     6 1
   17     4     5 1
   18     4     9 1
   19     3     4 1
   20     2     3 1
   21     2    10 1
   22     1     2 1
   23    30    31 1
   24    27    28 1
   25    16    26 1
   26    14    25 1
   27    10    23 1
   28     9    22 1
   29     8    21 1
   30     7    20 1
   31     6    19 1
   32     5    18 1
   33     3    17 1
@<TRIPOS>SUBSTRUCTURE
      1 S28               1 ****               0 ****  **** 
