@<TRIPOS>MOLECULE
T20
   45    47     1     0     0
SMALL
bcc


@<TRIPOS>ATOM
      1 O1           8.9350     1.3520    21.1120 o          1 T20      -0.612100
      2 N1           9.7200    -0.1520    22.6250 ns         1 T20      -0.410100
      3 N3           6.1940     0.1490    17.8880 na         1 T20      -0.279100
      4 N4           4.2370     1.4600    18.6150 nb         1 T20      -0.664000
      5 C1           8.8960     0.2060    21.5670 c          1 T20       0.770100
      6 N2           7.9730    -0.8600    21.0130 n          1 T20      -0.405600
      7 C8           7.1040    -0.3150    19.9590 cc         1 T20      -0.045600
      8 C9           7.2400    -0.4750    18.5920 cd         1 T20      -0.052100
      9 C10          5.3810     0.7470    18.8560 ca         1 T20       0.420800
     10 C11          3.6320     1.8960    19.7340 ca         1 T20       0.413200
     11 C12          4.0820     1.6620    21.0560 ca         1 T20      -0.267300
     12 C13          5.2380     0.9400    21.2730 ca         1 T20      -0.050000
     13 C14          5.9200     0.4670    20.1490 ca         1 T20      -0.194100
     14 H9           7.9070    -0.9500    18.1120 h4         1 T20       0.192000
     15 H11          2.7130     2.4810    19.5500 h4         1 T20       0.025100
     16 H12          3.4980     2.0640    21.8940 ha         1 T20       0.146000
     17 H13          5.6150     0.7320    22.2870 ha         1 T20       0.145000
     18 HN3          6.1120     0.2120    16.8780 hn         1 T20       0.316700
     19 H1           9.5590    -1.1200    22.8640 hn         1 T20       0.334500
     20 C2          11.1040     0.0260    22.2400 ca         1 T20      -0.172700
     21 C3          11.8470     1.1830    22.5190 ca         1 T20       0.712200
     22 N9          11.2810     2.1960    23.1730 nu         1 T20      -0.827900
     23 N8          13.1850     1.2730    22.1090 nb         1 T20      -0.737000
     24 C5          13.7800     0.2060    21.4200 ca         1 T20       0.491200
     25 C6          13.0380    -0.9510    21.1410 ca         1 T20      -0.204300
     26 H5          14.8110     0.2750    21.1040 h4         1 T20       0.033100
     27 C16         13.6330    -2.0170    20.4530 cg         1 T20       0.249800
     28 C7          11.7000    -1.0410    21.5510 ca         1 T20      -0.033000
     29 H7          11.1280    -1.9310    21.3360 ha         1 T20       0.158000
     30 N7          14.1750    -2.9860    19.8270 n1         1 T20      -0.374800
     31 H91         10.6220     2.0120    23.9160 hn         1 T20       0.446800
     32 C17         11.6100     3.5600    22.8180 c3         1 T20       0.202800
     33 H171        12.6790     3.7230    22.9540 h1         1 T20       0.053700
     34 H172        11.3450     3.7380    21.7760 h1         1 T20       0.053700
     35 C18         10.8320     4.5190    23.7120 c3         1 T20      -0.110100
     36 H181        11.0790     5.5460    23.4450 hc         1 T20       0.045367
     37 H182         9.7630     4.3560    23.5760 hc         1 T20       0.045367
     38 H183        11.0970     4.3400    24.7540 hc         1 T20       0.045367
     39 C19          7.9510    -2.1260    21.4270 c          1 T20       0.686300
     40 O2           8.7220    -2.4980    22.3230 o          1 T20      -0.613100
     41 C20          7.0570    -3.0370    20.8480 ce         1 T20      -0.235200
     42 H201         6.3850    -2.7130    20.0660 ha         1 T20       0.158000
     43 C21          7.0340    -4.3700    21.2830 c2         1 T20      -0.122000
     44 H211         7.7050    -4.6950    22.0640 ha         1 T20       0.132500
     45 H212         6.3450    -5.0720    20.8370 ha         1 T20       0.132500
@<TRIPOS>BOND
     1     1     5 2   
     2     2     5 1   
     3     3     8 1   
     4     3     9 1   
     5     3    18 1   
     6     4     9 ar  
     7     4    10 ar  
     8     5     6 1   
     9     6     7 1   
    10     7     8 2   
    11     7    13 1   
    12     8    14 1   
    13     9    13 ar  
    14    10    11 ar  
    15    10    15 1   
    16    11    12 ar  
    17    11    16 1   
    18    12    13 ar  
    19    12    17 1   
    20    19     2 1   
    21    20     2 1   
    22    21    20 ar  
    23    22    21 1   
    24    23    21 ar  
    25    24    23 ar  
    26    25    24 ar  
    27    26    24 1   
    28    27    25 1   
    29    28    25 ar  
    30    28    20 ar  
    31    29    28 1   
    32    30    27 3   
    33    31    22 1   
    34    32    22 1   
    35    33    32 1   
    36    34    32 1   
    37    35    32 1   
    38    36    35 1   
    39    37    35 1   
    40    38    35 1   
    41    39     6 1   
    42    40    39 2   
    43    41    39 1   
    44    42    41 1   
    45    43    41 2   
    46    44    43 1   
    47    45    43 1   
@<TRIPOS>SUBSTRUCTURE
     1 T20         1 TEMP              0 ****  ****    0 ROOT
