@<TRIPOS>MOLECULE
T15
   43    44     1     0     1 
SMALL
USER_CHARGES
@<TRIPOS>ATOM
  1 O1      8.713000    1.132000   20.727000 o     1 T15    -0.5681 ****
  2 C1      8.173000    0.247000   21.411000 c     1 T15     0.7791 ****
  3 N1      8.869000   -0.472000   22.376000 ns    1 T15    -0.4541 ****
  4 C2     10.221000   -0.089000   22.636000 ca    1 T15    -0.1557 ****
  5 C3     10.461000    0.927000   23.562000 ca    1 T15     0.7002 ****
  6 N8     11.768000    1.327000   23.805000 nb    1 T15    -0.7270 ****
  7 C5     12.819000    0.720000   23.129000 ca    1 T15     0.4892 ****
  8 C6     12.569000   -0.296000   22.216000 ca    1 T15    -0.1903 ****
  9 C7     11.269000   -0.716000   21.960000 ca    1 T15    -0.0380 ****
 10 N2      6.807000   -0.063000   21.240000 n     1 T15    -0.4386 ****
 11 C8      6.157000    0.487000   20.114000 ca    1 T15    -0.0067 ****
 12 C9      5.003000    1.255000   20.243000 ca    1 T15    -0.1720 ****
 13 C10     4.388000    1.751000   19.079000 ca    1 T15     0.0563 ****
 14 C11     4.961000    1.434000   17.822000 ca    1 T15     0.3182 ****
 15 N3      6.076000    0.701000   17.672000 nb    1 T15    -0.6130 ****
 16 C12     6.659000    0.247000   18.814000 ca    1 T15     0.3212 ****
 17 H1      8.510000   -1.328000   22.797000 hn    1 T15     0.3285 ****
 18 N9      9.454000    1.515000   24.206000 nu    1 T15    -0.8279 ****
 19 H5     13.843000    1.064000   23.294000 h4    1 T15     0.0381 ****
 20 C16    13.632000   -0.894000   21.522000 cg    1 T15     0.2428 ****
 21 H7     11.075000   -1.510000   21.230000 ha    1 T15     0.1520 ****
 22 C19     6.042000   -0.516000   22.232000 c     1 T15     0.6733 ****
 23 H9      4.595000    1.485000   21.236000 ha    1 T15     0.1660 ****
 24 N4      3.204000    2.456000   19.158000 nv    1 T15    -0.8182 ****
 25 H11     4.544000    1.821000   16.885000 h4    1 T15     0.0251 ****
 26 H12     7.458000   -0.246000   18.677000 h4    1 T15     0.0231 ****
 27 H41     2.993000    2.930000   20.028000 hn    1 T15     0.4003 ****
 28 H42     2.904000    2.953000   18.330000 hn    1 T15     0.4003 ****
 29 N7     14.597000   -1.437000   20.892000 n1    1 T15    -0.3618 ****
 30 C17     9.183000    2.921000   23.994000 c3    1 T15     0.1958 ****
 31 H91     8.879000    0.980000   24.841000 hn    1 T15     0.4348 ****
 32 C18     7.988000    3.342000   24.843000 c3    1 T15    -0.1111 ****
 33 H172   10.056000    3.506000   24.282000 h1    1 T15     0.0567 ****
 34 H171    8.960000    3.094000   22.942000 h1    1 T15     0.0567 ****
 35 H181    7.784000    4.401000   24.683000 hc    1 T15     0.0457 ****
 36 H182    8.211000    3.169000   25.895000 hc    1 T15     0.0457 ****
 37 H183    7.115000    2.757000   24.556000 hc    1 T15     0.0457 ****
 38 C20     6.617000   -0.892000   23.455000 ce    1 T15    -0.2472 ****
 39 O2      4.817000   -0.606000   22.073000 o     1 T15    -0.5621 ****
 40 H201    7.685000   -0.814000   23.596000 ha    1 T15     0.1480 ****
 41 C21     5.805000   -1.368000   24.494000 c2    1 T15    -0.1210 ****
 42 H211    4.737000   -1.445000   24.353000 ha    1 T15     0.1340 ****
 43 H212    6.248000   -1.657000   25.436000 ha    1 T15     0.1340 ****
@<TRIPOS>BOND
    1     1     2 1
    2     2     3 1
    3     2    10 1
    4     3     4 1
    5     3    17 1
    6     4     5 1
    7     4     9 1
    8     5     6 1
    9     5    18 1
   10     6     7 1
   11     7     8 1
   12     7    19 1
   13     8     9 1
   14     8    20 1
   15     9    21 1
   16    10    11 1
   17    10    22 1
   18    11    12 1
   19    11    16 1
   20    12    13 1
   21    12    23 1
   22    13    14 1
   23    13    24 1
   24    14    15 1
   25    14    25 1
   26    15    16 1
   27    16    26 1
   28    18    30 1
   29    18    31 1
   30    20    29 1
   31    22    38 1
   32    22    39 1
   33    24    27 1
   34    24    28 1
   35    30    32 1
   36    30    33 1
   37    30    34 1
   38    32    35 1
   39    32    36 1
   40    32    37 1
   41    38    40 1
   42    38    41 1
   43    41    42 1
   44    41    43 1
@<TRIPOS>SUBSTRUCTURE
      1  T15              1 ****               0 ****  **** 
