@<TRIPOS>MOLECULE
T21
   45    47     1     0     1 
SMALL
USER_CHARGES
@<TRIPOS>ATOM
  1 O1      8.935000    1.352000   21.112000 o     1 T21    -0.5991 ****
  2 N1      9.720000   -0.152000   22.625000 ns    1 T21    -0.4121 ****
  3 N3      6.194000    0.149000   17.888000 na    1 T21    -0.3031 ****
  4 N4      4.237000    1.460000   18.615000 nb    1 T21    -0.6600 ****
  5 C1      8.896000    0.206000   21.567000 c     1 T21     0.7671 ****
  6 N2      7.973000   -0.860000   21.013000 n     1 T21    -0.4056 ****
  7 C8      7.104000   -0.315000   19.959000 cc    1 T21    -0.0466 ****
  8 C9      7.240000   -0.475000   18.592000 cd    1 T21     0.2084 ****
  9 C10     5.381000    0.747000   18.856000 ca    1 T21     0.4368 ****
 10 C11     3.632000    1.896000   19.734000 ca    1 T21     0.4142 ****
 11 C12     4.082000    1.662000   21.056000 ca    1 T21    -0.2623 ****
 12 C13     5.238000    0.940000   21.273000 ca    1 T21    -0.0500 ****
 13 C14     5.920000    0.467000   20.149000 ca    1 T21    -0.1791 ****
 14 F1      8.101000   -1.089000   17.972000 f     1 T21    -0.1165 ****
 15 H11     2.713000    2.481000   19.550000 h4    1 T21     0.0281 ****
 16 H12     3.498000    2.064000   21.894000 ha    1 T21     0.1490 ****
 17 H13     5.615000    0.732000   22.287000 ha    1 T21     0.1490 ****
 18 HN3     6.112000    0.212000   16.878000 hn    1 T21     0.3247 ****
 19 H1      9.559000   -1.120000   22.864000 hn    1 T21     0.3325 ****
 20 C2     11.104000    0.026000   22.240000 ca    1 T21    -0.1737 ****
 21 C3     11.847000    1.183000   22.519000 ca    1 T21     0.7122 ****
 22 N9     11.281000    2.196000   23.173000 nu    1 T21    -0.8269 ****
 23 N8     13.185000    1.273000   22.109000 nb    1 T21    -0.7360 ****
 24 C5     13.780000    0.206000   21.420000 ca    1 T21     0.4912 ****
 25 C6     13.038000   -0.951000   21.141000 ca    1 T21    -0.2033 ****
 26 H5     14.811000    0.275000   21.104000 h4    1 T21     0.0341 ****
 27 C16    13.633000   -2.017000   20.453000 cg    1 T21     0.2488 ****
 28 C7     11.700000   -1.041000   21.551000 ca    1 T21    -0.0330 ****
 29 H7     11.128000   -1.931000   21.336000 ha    1 T21     0.1570 ****
 30 N7     14.175000   -2.986000   19.827000 n1    1 T21    -0.3748 ****
 31 H91    10.622000    2.012000   23.916000 hn    1 T21     0.4458 ****
 32 C17    11.610000    3.560000   22.818000 c3    1 T21     0.2018 ****
 33 H171   12.679000    3.723000   22.954000 h1    1 T21     0.0542 ****
 34 H172   11.345000    3.738000   21.776000 h1    1 T21     0.0542 ****
 35 C18    10.832000    4.519000   23.712000 c3    1 T21    -0.1101 ****
 36 H181   11.079000    5.546000   23.445000 hc    1 T21     0.0454 ****
 37 H182    9.763000    4.356000   23.576000 hc    1 T21     0.0454 ****
 38 H183   11.097000    4.340000   24.754000 hc    1 T21     0.0454 ****
 39 C19     7.951000   -2.126000   21.427000 c     1 T21     0.6883 ****
 40 O2      8.722000   -2.498000   22.323000 o     1 T21    -0.6041 ****
 41 C20     7.057000   -3.037000   20.848000 ce    1 T21    -0.2362 ****
 42 H201    6.385000   -2.713000   20.066000 ha    1 T21     0.1550 ****
 43 C21     7.034000   -4.370000   21.283000 c2    1 T21    -0.1200 ****
 44 H211    7.705000   -4.695000   22.064000 ha    1 T21     0.1335 ****
 45 H212    6.345000   -5.072000   20.837000 ha    1 T21     0.1335 ****
@<TRIPOS>BOND
    1     1     5 1
    2     2     5 1
    3     2    19 1
    4     2    20 1
    5     3     8 1
    6     3     9 1
    7     3    18 1
    8     4     9 1
    9     4    10 1
   10     5     6 1
   11     6     7 1
   12     6    39 1
   13     7     8 1
   14     7    13 1
   15     8    14 1
   16     9    13 1
   17    10    11 1
   18    10    15 1
   19    11    12 1
   20    11    16 1
   21    12    13 1
   22    12    17 1
   23    20    21 1
   24    20    28 1
   25    21    22 1
   26    21    23 1
   27    22    31 1
   28    22    32 1
   29    23    24 1
   30    24    25 1
   31    24    26 1
   32    25    27 1
   33    25    28 1
   34    27    30 1
   35    28    29 1
   36    32    33 1
   37    32    34 1
   38    32    35 1
   39    35    36 1
   40    35    37 1
   41    35    38 1
   42    39    40 1
   43    39    41 1
   44    41    42 1
   45    41    43 1
   46    43    44 1
   47    43    45 1
@<TRIPOS>SUBSTRUCTURE
      1  T21              1 ****               0 ****  **** 
