@<TRIPOS>MOLECULE
S67
   37    39     1     0     1 
SMALL
USER_CHARGES
@<TRIPOS>ATOM
  1 O1      9.356000    1.228000   20.959000 o     1 S67    -0.5631 ****
  2 C1      8.793000    0.545000   21.814000 c     1 S67     0.6611 ****
  3 C2      9.403000    0.131000   23.131000 c3    1 S67    -0.1484 ****
  4 C3     10.927000    0.026000   23.015000 c3    1 S67    -0.0607 ****
  5 C4     11.315000   -1.090000   22.042000 c3    1 S67    -0.0749 ****
  6 C5     12.524000   -1.891000   22.514000 c3    1 S67    -0.0754 ****
  7 C6     13.587000   -1.021000   23.163000 c3    1 S67    -0.0774 ****
  8 C7     13.038000   -0.172000   24.307000 c3    1 S67    -0.0754 ****
  9 C8     11.520000   -0.235000   24.400000 c3    1 S67    -0.0749 ****
 10 N1      7.463000    0.158000   21.613000 ns    1 S67    -0.4681 ****
 11 C9      6.776000    0.477000   20.430000 cc    1 S67    -0.0627 ****
 12 C10     5.490000    1.094000   20.558000 cc    1 S67    -0.0513 ****
 13 N4      4.761000    1.354000   19.365000 na    1 S67     0.0262 ****
 14 C12     5.329000    1.059000   18.111000 cc    1 S67     0.5604 ****
 15 N2      6.525000    0.518000   18.014000 nd    1 S67    -0.6880 ****
 16 C13     7.246000    0.216000   19.165000 cd    1 S67     0.5985 ****
 17 H22     8.983000   -0.829000   23.509000 hc    1 S67     0.0737 ****
 18 H23     9.112000    0.891000   23.891000 hc    1 S67     0.0737 ****
 19 H3     11.333000    1.000000   22.638000 hc    1 S67     0.0687 ****
 20 H42    10.475000   -1.793000   21.858000 hc    1 S67     0.0397 ****
 21 H43    11.499000   -0.655000   21.041000 hc    1 S67     0.0397 ****
 22 H52    12.970000   -2.435000   21.656000 hc    1 S67     0.0420 ****
 23 H53    12.207000   -2.689000   23.219000 hc    1 S67     0.0420 ****
 24 H62    14.413000   -1.665000   23.531000 hc    1 S67     0.0427 ****
 25 H63    14.061000   -0.375000   22.398000 hc    1 S67     0.0427 ****
 26 H72    13.495000   -0.486000   25.268000 hc    1 S67     0.0420 ****
 27 H73    13.358000    0.884000   24.178000 hc    1 S67     0.0420 ****
 28 H82    11.147000    0.504000   25.138000 hc    1 S67     0.0397 ****
 29 H83    11.179000   -1.214000   24.795000 hc    1 S67     0.0397 ****
 30 H1      6.919000   -0.295000   22.352000 hn    1 S67     0.3265 ****
 31 C15     4.694000    1.534000   21.608000 cd    1 S67    -0.3326 ****
 32 N3      3.550000    1.931000   19.640000 nc    1 S67    -0.5461 ****
 33 H12     4.751000    1.310000   17.207000 h5    1 S67     0.0811 ****
 34 F1      8.329000   -0.314000   18.947000 f     1 S67    -0.1902 ****
 35 C14     3.504000    2.039000   21.000000 cd    1 S67     0.3815 ****
 36 H14     2.631000    2.469000   21.508000 h4    1 S67     0.0578 ****
 37 H15     4.907000    1.489000   22.673000 ha    1 S67     0.1690 ****
@<TRIPOS>BOND
    1     1     2 1
    2     2     3 1
    3     2    10 1
    4     3     4 1
    5     3    17 1
    6     3    18 1
    7     4     5 1
    8     4     9 1
    9     4    19 1
   10     5     6 1
   11     5    20 1
   12     5    21 1
   13     6     7 1
   14     6    22 1
   15     6    23 1
   16     7     8 1
   17     7    24 1
   18     7    25 1
   19     8     9 1
   20     8    26 1
   21     8    27 1
   22     9    28 1
   23     9    29 1
   24    10    11 1
   25    10    30 1
   26    11    12 1
   27    11    16 1
   28    12    13 1
   29    12    31 1
   30    13    14 1
   31    13    32 1
   32    14    15 1
   33    14    33 1
   34    15    16 1
   35    16    34 1
   36    31    35 1
   37    31    37 1
   38    32    35 1
   39    35    36 1
@<TRIPOS>SUBSTRUCTURE
      1  S67              1 ****               0 ****  **** 
