@<TRIPOS>MOLECULE
S64
   38    40     1     0     0
SMALL
bcc


@<TRIPOS>ATOM
      1 O1           9.3720     1.1430    20.9770 o          1 S64      -0.575100
      2 C1           8.8110     0.4330    21.8100 c          1 S64       0.656100
      3 C2           9.4160    -0.0200    23.1190 c3         1 S64      -0.152400
      4 C3          10.9430    -0.0020    23.0370 c3         1 S64      -0.063700
      5 C4          11.4340    -1.0380    22.0210 c3         1 S64      -0.076900
      6 C5          12.6190    -1.8500    22.5290 c3         1 S64      -0.074900
      7 C6          13.6490    -0.9930    23.2450 c3         1 S64      -0.077400
      8 C7          13.0400    -0.1270    24.3440 c3         1 S64      -0.074900
      9 C8          11.5270    -0.2700    24.4230 c3         1 S64      -0.076900
     10 N1           7.4840     0.0490    21.6060 ns         1 S64      -0.465100
     11 C9           6.7840     0.4250    20.4420 ca         1 S64      -0.041700
     12 C10          5.5460     1.1090    20.5680 ca         1 S64      -0.228600
     13 C11          4.7980     1.3610    19.4070 ca         1 S64       0.294300
     14 C12          5.3610     0.9970    18.1390 ca         1 S64       0.381900
     15 N2           6.5560     0.4360    18.0290 nb         1 S64      -0.648000
     16 C13          7.2580     0.1350    19.1710 ca         1 S64       0.546500
     17 H22          9.0600    -1.0320    23.4190 hc         1 S64       0.077200
     18 H23          9.0480     0.6640    23.9190 hc         1 S64       0.077200
     19 H3          11.2780     1.0160    22.7110 hc         1 S64       0.066700
     20 H42         10.6260    -1.7410    21.7170 hc         1 S64       0.041200
     21 H43         11.6880    -0.5250    21.0760 hc         1 S64       0.041200
     22 H52         13.1040    -2.3750    21.6800 hc         1 S64       0.042950
     23 H53         12.2710    -2.6660    23.1980 hc         1 S64       0.042950
     24 H62         14.4390    -1.6500    23.6670 hc         1 S64       0.043200
     25 H63         14.1780    -0.3570    22.5090 hc         1 S64       0.043200
     26 H72         13.5070    -0.3750    25.3180 hc         1 S64       0.042950
     27 H73         13.3030     0.9400    24.1740 hc         1 S64       0.042950
     28 H82         11.1090     0.4340    25.1730 hc         1 S64       0.041200
     29 H83         11.2310    -1.2730    24.7940 hc         1 S64       0.041200
     30 H1           6.9660    -0.5050    22.2960 hn         1 S64       0.322500
     31 C16          4.9900     1.5710    21.8080 ca         1 S64       0.481200
     32 N3           3.5370     1.9330    19.4600 nb         1 S64      -0.668000
     33 H12          4.8140     1.2040    17.2100 h4         1 S64       0.054100
     34 F1           8.3300    -0.4260    18.9760 f          1 S64      -0.225200
     35 C14          3.1060     2.3060    20.6650 ca         1 S64       0.637900
     36 N5           3.8130     2.1750    21.8620 nb         1 S64      -0.684000
     37 H14          2.0900     2.7590    20.7400 h5         1 S64       0.061100
     38 H16          5.5170     1.4330    22.7720 h4         1 S64       0.051100
@<TRIPOS>BOND
     1     1     2 2   
     2     2     3 1   
     3     2    10 1   
     4     3     4 1   
     5     3    17 1   
     6     3    18 1   
     7     4     5 1   
     8     4     9 1   
     9     4    19 1   
    10     5     6 1   
    11     5    20 1   
    12     5    21 1   
    13     6     7 1   
    14     6    22 1   
    15     6    23 1   
    16     7     8 1   
    17     7    24 1   
    18     7    25 1   
    19     8     9 1   
    20     8    26 1   
    21     8    27 1   
    22     9    28 1   
    23     9    29 1   
    24    10    11 1   
    25    10    30 1   
    26    11    12 ar  
    27    11    16 ar  
    28    12    13 ar  
    29    12    31 ar  
    30    13    14 ar  
    31    13    32 ar  
    32    14    15 ar  
    33    14    33 1   
    34    15    16 ar  
    35    16    34 1   
    36    31    36 ar  
    37    31    38 1   
    38    32    35 ar  
    39    35    36 ar  
    40    35    37 1   
@<TRIPOS>SUBSTRUCTURE
     1 S64         1 TEMP              0 ****  ****    0 ROOT
