@<TRIPOS>MOLECULE
S68
   37    39     1     0     1 
SMALL
USER_CHARGES
@<TRIPOS>ATOM
  1 O1      9.321000    1.261000   20.976000 o     1 S68    -0.5721 ****
  2 C1      8.780000    0.554000   21.815000 c     1 S68     0.6621 ****
  3 C2      9.383000    0.152000   23.138000 c3    1 S68    -0.1514 ****
  4 C3     10.905000    0.036000   23.017000 c3    1 S68    -0.0637 ****
  5 C4     11.278000   -1.086000   22.047000 c3    1 S68    -0.0769 ****
  6 C5     12.497000   -1.881000   22.505000 c3    1 S68    -0.0749 ****
  7 C6     13.563000   -1.005000   23.148000 c3    1 S68    -0.0774 ****
  8 C7     13.020000   -0.164000   24.302000 c3    1 S68    -0.0749 ****
  9 C8     11.500000   -0.228000   24.400000 c3    1 S68    -0.0769 ****
 10 N1      7.466000    0.110000   21.591000 ns    1 S68    -0.4711 ****
 11 C9      6.792000    0.431000   20.398000 cc    1 S68    -0.0230 ****
 12 N5      5.558000    1.095000   20.521000 na    1 S68     0.0277 ****
 13 C11     4.772000    1.369000   19.368000 cc    1 S68    -0.1716 ****
 14 C12     5.350000    1.057000   18.091000 cc    1 S68     0.4742 ****
 15 N2      6.527000    0.484000   17.975000 nd    1 S68    -0.6510 ****
 16 C13     7.235000    0.150000   19.124000 cd    1 S68     0.5165 ****
 17 H22     8.961000   -0.802000   23.533000 hc    1 S68     0.0782 ****
 18 H23     9.099000    0.937000   23.877000 hc    1 S68     0.0782 ****
 19 H3     11.317000    1.006000   22.635000 hc    1 S68     0.0667 ****
 20 H42    10.436000   -1.793000   21.884000 hc    1 S68     0.0409 ****
 21 H43    11.447000   -0.657000   21.040000 hc    1 S68     0.0409 ****
 22 H52    12.938000   -2.421000   21.641000 hc    1 S68     0.0437 ****
 23 H53    12.192000   -2.682000   23.212000 hc    1 S68     0.0437 ****
 24 H62    14.397000   -1.646000   23.507000 hc    1 S68     0.0437 ****
 25 H63    14.023000   -0.352000   22.380000 hc    1 S68     0.0437 ****
 26 H72    13.482000   -0.486000   25.259000 hc    1 S68     0.0437 ****
 27 H73    13.343000    0.891000   24.180000 hc    1 S68     0.0437 ****
 28 H82    11.135000    0.514000   25.139000 hc    1 S68     0.0409 ****
 29 H83    11.159000   -1.207000   24.796000 hc    1 S68     0.0409 ****
 30 H1      6.955000   -0.448000   22.284000 hn    1 S68     0.3365 ****
 31 C15     4.825000    1.506000   21.634000 cc    1 S68    -0.1661 ****
 32 N3      3.583000    1.919000   19.735000 nd    1 S68    -0.2466 ****
 33 H12     4.796000    1.322000   17.181000 h4    1 S68     0.0611 ****
 34 F1      8.290000   -0.434000   18.908000 f     1 S68    -0.2202 ****
 35 C14     3.617000    2.001000   21.123000 cd    1 S68    -0.0034 ****
 36 H14     2.776000    2.418000   21.689000 h4    1 S68     0.1890 ****
 37 H15     5.171000    1.421000   22.669000 h4    1 S68     0.2050 ****
@<TRIPOS>BOND
    1     1     2 1
    2     2     3 1
    3     2    10 1
    4     3     4 1
    5     3    17 1
    6     3    18 1
    7     4     5 1
    8     4     9 1
    9     4    19 1
   10     5     6 1
   11     5    20 1
   12     5    21 1
   13     6     7 1
   14     6    22 1
   15     6    23 1
   16     7     8 1
   17     7    24 1
   18     7    25 1
   19     8     9 1
   20     8    26 1
   21     8    27 1
   22     9    28 1
   23     9    29 1
   24    10    11 1
   25    10    30 1
   26    11    12 1
   27    11    16 1
   28    12    13 1
   29    12    31 1
   30    13    14 1
   31    13    32 1
   32    14    15 1
   33    14    33 1
   34    15    16 1
   35    16    34 1
   36    31    35 1
   37    31    37 1
   38    32    35 1
   39    35    36 1
@<TRIPOS>SUBSTRUCTURE
      1  S68              1 ****               0 ****  **** 
