@<TRIPOS>MOLECULE
S57
   30    32     1     0     0
SMALL
bcc


@<TRIPOS>ATOM
      1 O1           8.7240     0.9510    20.6900 o          1 S57      -0.590100
      2 C1           8.2390     0.0030    21.3300 c          1 S57       0.755100
      3 N1           8.9640    -0.6980    22.2860 ns         1 S57      -0.454100
      4 C2          10.2810    -0.2430    22.5960 ca         1 S57       0.059600
      5 C3          10.4290     0.9180    23.3580 ca         1 S57      -0.157000
      6 C4          11.7080     1.3840    23.6420 ca         1 S57      -0.108500
      7 C5          12.8200     0.6950    23.1700 ca         1 S57      -0.151000
      8 C6          12.6600    -0.4710    22.4270 ca         1 S57      -0.108500
      9 C7          11.3910    -0.9510    22.1310 ca         1 S57      -0.157000
     10 N2           6.9070    -0.4230    21.1100 ns         1 S57      -0.437100
     11 C8           6.2310     0.1580    20.0150 ca         1 S57      -0.038700
     12 C9           5.0750     0.9380    20.1840 ca         1 S57       0.075400
     13 C10          4.4980     1.5620    19.0430 ca         1 S57      -0.203500
     14 C11          5.0550     1.3570    17.7670 ca         1 S57       0.428200
     15 N3           6.1290     0.5780    17.6160 nb         1 S57      -0.664000
     16 C12          6.7070     0.0010    18.7150 ca         1 S57       0.607500
     17 H1           8.6460    -1.5810    22.6810 hn         1 S57       0.310500
     18 H3           9.5540     1.4640    23.7260 ha         1 S57       0.149500
     19 H4          11.8300     2.3000    24.2270 ha         1 S57       0.133000
     20 H5          13.8220     1.0860    23.3580 ha         1 S57       0.133000
     21 H6          13.5380    -1.0060    22.0560 ha         1 S57       0.133000
     22 H7          11.2660    -1.8600    21.5320 ha         1 S57       0.149500
     23 H2           6.3400    -0.7890    21.8760 hn         1 S57       0.319500
     24 N4           3.4020     2.2890    19.5090 na         1 S57      -0.270300
     25 H11          4.6530     1.8480    16.8730 h4         1 S57       0.034100
     26 F1           7.7040    -0.6680    18.4700 f          1 S57      -0.200200
     27 N8           4.3330     1.2640    21.3310 nc         1 S57      -0.580100
     28 C13          3.3500     2.0910    20.8960 cd         1 S57       0.440700
     29 H13          2.5770     2.5530    21.5460 h5         1 S57       0.075800
     30 HN4          2.8790     2.9630    18.9580 hn         1 S57       0.314700
@<TRIPOS>BOND
     1     1     2 2   
     2     2     3 1   
     3     2    10 1   
     4     3     4 1   
     5     3    17 1   
     6     4     5 ar  
     7     4     9 ar  
     8     5     6 ar  
     9     5    18 1   
    10     6     7 ar  
    11     6    19 1   
    12     7     8 ar  
    13     7    20 1   
    14     8     9 ar  
    15     8    21 1   
    16     9    22 1   
    17    10    11 1   
    18    10    23 1   
    19    11    12 ar  
    20    11    16 ar  
    21    12    13 ar  
    22    12    27 1   
    23    13    14 ar  
    24    13    24 1   
    25    14    15 ar  
    26    14    25 1   
    27    15    16 ar  
    28    16    26 1   
    29    24    28 1   
    30    24    30 1   
    31    27    28 2   
    32    28    29 1   
@<TRIPOS>SUBSTRUCTURE
     1 S57         1 TEMP              0 ****  ****    0 ROOT
