@<TRIPOS>MOLECULE
S71
   38    40     1     0     1 
SMALL
USER_CHARGES
@<TRIPOS>ATOM
  1 O1      9.417000    1.221000   20.959000 o     1 S71    -0.5681 ****
  2 C1      8.835000    0.586000   21.842000 c     1 S71     0.6581 ****
  3 C2      9.438000    0.149000   23.149000 c3    1 S71    -0.1484 ****
  4 C3     10.968000    0.042000   23.042000 c3    1 S71    -0.0597 ****
  5 C4     11.366000   -1.048000   22.043000 c3    1 S71    -0.0754 ****
  6 C5     12.557000   -1.868000   22.517000 c3    1 S71    -0.0749 ****
  7 C6     13.624000   -1.020000   23.190000 c3    1 S71    -0.0774 ****
  8 C7     13.066000   -0.174000   24.339000 c3    1 S71    -0.0749 ****
  9 C8     11.545000   -0.248000   24.424000 c3    1 S71    -0.0754 ****
 10 N1      7.490000    0.258000   21.672000 ns    1 S71    -0.4611 ****
 11 C9      6.777000    0.585000   20.498000 ca    1 S71    -0.1170 ****
 12 C10     5.524000    1.274000   20.594000 ca    1 S71     0.3003 ****
 13 C11     4.755000    1.421000   19.426000 ca    1 S71     0.1600 ****
 14 C12     5.301000    0.988000   18.184000 ca    1 S71     0.3949 ****
 15 N2      6.508000    0.441000   18.091000 nb    1 S71    -0.6610 ****
 16 C13     7.227000    0.219000   19.235000 ca    1 S71     0.6105 ****
 17 H22     9.015000   -0.827000   23.500000 hc    1 S71     0.0737 ****
 18 H23     9.137000    0.866000   23.940000 hc    1 S71     0.0737 ****
 19 H3     11.363000    1.031000   22.689000 hc    1 S71     0.0677 ****
 20 H42    10.522000   -1.747000   21.824000 hc    1 S71     0.0407 ****
 21 H43    11.565000   -0.588000   21.057000 hc    1 S71     0.0407 ****
 22 H52    13.007000   -2.409000   21.650000 hc    1 S71     0.0409 ****
 23 H53    12.227000   -2.680000   23.196000 hc    1 S71     0.0409 ****
 24 H62    14.438000   -1.674000   23.564000 hc    1 S71     0.0422 ****
 25 H63    14.114000   -0.374000   22.442000 hc    1 S71     0.0422 ****
 26 H72    13.533000   -0.486000   25.291000 hc    1 S71     0.0409 ****
 27 H73    13.382000    0.885000   24.213000 hc    1 S71     0.0409 ****
 28 H82    11.165000    0.472000   25.180000 hc    1 S71     0.0407 ****
 29 H83    11.206000   -1.236000   24.800000 hc    1 S71     0.0407 ****
 30 H1      6.918000   -0.063000   22.470000 hn    1 S71     0.3345 ****
 31 N6      5.096000    1.761000   21.819000 nb    1 S71    -0.6410 ****
 32 N3      3.474000    1.962000   19.490000 nb    1 S71    -0.5960 ****
 33 H12     4.733000    1.117000   17.251000 h4    1 S71     0.0521 ****
 34 F1      8.296000   -0.356000   19.069000 f     1 S71    -0.1932 ****
 35 C14     3.062000    2.392000   20.665000 ca    1 S71     0.2879 ****
 36 C15     3.900000    2.322000   21.850000 ca    1 S71     0.3189 ****
 37 H142    2.029000    2.795000   20.718000 h4    1 S71     0.0411 ****
 38 H11     3.533000    2.708000   22.831000 h4    1 S71     0.0391 ****
@<TRIPOS>BOND
    1     1     2 1
    2     2     3 1
    3     2    10 1
    4     3     4 1
    5     3    17 1
    6     3    18 1
    7     4     5 1
    8     4     9 1
    9     4    19 1
   10     5     6 1
   11     5    20 1
   12     5    21 1
   13     6     7 1
   14     6    22 1
   15     6    23 1
   16     7     8 1
   17     7    24 1
   18     7    25 1
   19     8     9 1
   20     8    26 1
   21     8    27 1
   22     9    28 1
   23     9    29 1
   24    10    11 1
   25    10    30 1
   26    11    12 1
   27    11    16 1
   28    12    13 1
   29    12    31 1
   30    13    14 1
   31    13    32 1
   32    14    15 1
   33    14    33 1
   34    15    16 1
   35    16    34 1
   36    31    36 1
   37    32    35 1
   38    35    36 1
   39    35    37 1
   40    36    38 1
@<TRIPOS>SUBSTRUCTURE
      1  S71              1 ****               0 ****  **** 
