@<TRIPOS>MOLECULE
Cpptraj Generated mol2 file.
   37    39     1     0     0
SMALL
USER_CHARGES


@<TRIPOS>ATOM
      1 C1         13.6852   -1.5260   23.4095 c3         1 S74      0.083100
      2 N1         12.2572   -1.0554   23.6107 nx         1 S74     -0.681400
      3 O1          8.9167    1.4222   21.1647 o          1 S74     -0.572100
      4 C2         11.3036   -1.9728   22.8463 c3         1 S74      0.082300
      5 N2          9.7415   -0.1328   22.6029 n          1 S74     -0.499800
      6 C3          9.8658   -1.4998   23.1093 c3         1 S74      0.075000
      7 N3          6.1842    0.2471   17.9455 na         1 S74     -0.259100
      8 C4         10.6223    0.8238   23.2924 c3         1 S74      0.075000
      9 N4          4.1975    1.5438   18.6657 nb         1 S74     -0.608000
     10 C5         12.0938    0.3918   23.1303 c3         1 S74      0.082300
     11 C6          8.8655    0.2667   21.6043 c          1 S74      0.678100
     12 C7          7.9061   -0.7711   21.0566 c3         1 S74     -0.054200
     13 C8          7.0571   -0.2213   19.9907 cc         1 S74     -0.292000
     14 C9          7.2208   -0.3950   18.6284 cd         1 S74     -0.041100
     15 C10         5.3513    0.8390   18.8851 ca         1 S74      0.313500
     16 C11         3.6123    1.9567   19.7962 ca         1 S74      0.305900
     17 C12         4.1314    1.6833   21.1073 ca         1 S74      0.271900
     18 N6          5.2493    0.9906   21.3263 nb         1 S74     -0.640000
     19 C14         5.8835    0.5567   20.1915 ca         1 S74      0.305800
     20 HN1        12.0054   -1.1223   24.6354 hn         1 S74      0.446800
     21 H22        11.4361   -3.0439   23.1638 hx         1 S74      0.107950
     22 H23        11.5273   -1.9686   21.7534 hx         1 S74      0.107950
     23 H32         9.1537   -2.2230   22.6434 h1         1 S74      0.100950
     24 H33         9.5918   -1.5418   24.1956 h1         1 S74      0.100950
     25 H42        10.5265    1.8672   22.9161 h1         1 S74      0.100950
     26 H43        10.3428    0.9005   24.3798 h1         1 S74      0.100950
     27 H52        12.7772    1.0722   23.6967 hx         1 S74      0.107950
     28 H53        12.4238    0.4672   22.0604 hx         1 S74      0.107950
     29 H72         8.4895   -1.6306   20.6672 hc         1 S74      0.087200
     30 H73         7.2689   -1.1693   21.8784 hc         1 S74      0.087200
     31 H9          7.9906   -0.9689   18.0911 h4         1 S74      0.192000
     32 H11         2.6820    2.5319   19.6762 h4         1 S74      0.047100
     33 HN3         6.0983    0.2789   16.9281 hn         1 S74      0.328700
     34 H14        13.8395   -2.5546   23.8111 hx         1 S74      0.105033
     35 H15        13.9710   -1.5337   22.3444 hx         1 S74      0.105033
     36 H16        14.3982   -0.8657   23.9420 hx         1 S74      0.105033
     37 H12         3.5950    2.0277   22.0063 h4         1 S74      0.034100
@<TRIPOS>BOND
    1    18    19 1
    2    17    18 1
    3    16    17 1
    4    15    19 1
    5    13    14 1
    6    13    19 1
    7    12    13 1
    8    11    12 1
    9     9    15 1
   10     9    16 1
   11     8    10 1
   12     7    14 1
   13     7    15 1
   14     5    11 1
   15     5     6 1
   16     5     8 1
   17     4     6 1
   18     3    11 1
   19     2     4 1
   20     2    10 1
   21     1     2 1
   22    17    37 1
   23    16    32 1
   24    14    31 1
   25    12    29 1
   26    12    30 1
   27    10    27 1
   28    10    28 1
   29     8    25 1
   30     8    26 1
   31     7    33 1
   32     6    23 1
   33     6    24 1
   34     4    21 1
   35     4    22 1
   36     2    20 1
   37     1    34 1
   38     1    35 1
   39     1    36 1
@<TRIPOS>SUBSTRUCTURE
      1 S74               1 ****               0 ****  **** 
