@<TRIPOS>MOLECULE
Cpptraj Generated mol2 file.
   37    39     1     0     0
SMALL
USER_CHARGES


@<TRIPOS>ATOM
      1 C1         13.7009   -1.4911   23.4476 c3         1 S73      0.083100
      2 N1         12.2661   -1.0444   23.6340 nx         1 S73     -0.680400
      3 O1          8.9415    1.4144   21.1589 o          1 S73     -0.561100
      4 C2         11.3189   -1.9688   22.8583 c3         1 S73      0.081300
      5 N2          9.7406   -0.1209   22.6488 n          1 S73     -0.499800
      6 C3          9.8727   -1.5117   23.1411 c3         1 S73      0.074500
      7 N3          6.2255    0.2539   17.9346 na         1 S73     -0.266100
      8 C4         10.6320    0.8270   23.3269 c3         1 S73      0.074500
      9 N4          4.2197    1.5108   18.6593 nb         1 S73     -0.671000
     10 C5         12.0993    0.3951   23.1508 c3         1 S73      0.081300
     11 C6          8.9136    0.2607   21.6016 c          1 S73      0.673100
     12 C7          7.9832   -0.7920   21.0361 c3         1 S73     -0.063200
     13 C8          7.1203   -0.2347   19.9781 cc         1 S73     -0.166400
     14 C9          7.2748   -0.3848   18.6129 cd         1 S73     -0.059100
     15 C10         5.3867    0.8184   18.8819 ca         1 S73      0.444800
     16 C11         3.6189    1.8930   19.8103 ca         1 S73      0.645900
     17 N5          4.0506    1.6417   21.0947 nb         1 S73     -0.698000
     18 C13         5.1968    0.9661   21.2751 ca         1 S73      0.451200
     19 C14         5.9293    0.5216   20.1734 ca         1 S73     -0.329400
     20 HN1        12.0162   -1.0946   24.6643 hn         1 S73      0.447800
     21 H22        11.4727   -3.0307   23.1951 hx         1 S73      0.109450
     22 H23        11.5635   -1.9603   21.7624 hx         1 S73      0.109450
     23 H32         9.1782   -2.2369   22.6503 h1         1 S73      0.098200
     24 H33         9.6084   -1.5479   24.2345 h1         1 S73      0.098200
     25 H42        10.5122    1.8683   22.9386 h1         1 S73      0.098200
     26 H43        10.3411    0.8947   24.4030 h1         1 S73      0.098200
     27 H52        12.7718    1.0962   23.7087 hx         1 S73      0.109450
     28 H53        12.4259    0.4864   22.0901 hx         1 S73      0.109450
     29 H72         8.5726   -1.6373   20.6071 hc         1 S73      0.090700
     30 H73         7.3305   -1.2134   21.8367 hc         1 S73      0.090700
     31 H9          8.0503   -0.9183   18.0635 h4         1 S73      0.190000
     32 H11         2.6814    2.4727   19.6862 h5         1 S73      0.071100
     33 H13         5.4983    0.7770   22.3198 h4         1 S73      0.017100
     34 HN3         6.1665    0.3255   16.9243 hn         1 S73      0.328700
     35 H14        13.8584   -2.5186   23.8464 hx         1 S73      0.106033
     36 H15        13.9922   -1.5026   22.3765 hx         1 S73      0.106033
     37 H16        14.4088   -0.8296   23.9878 hx         1 S73      0.106033
@<TRIPOS>BOND
    1    18    19 1
    2    17    18 1
    3    16    17 1
    4    15    19 1
    5    13    14 1
    6    13    19 1
    7    12    13 1
    8    11    12 1
    9     9    15 1
   10     9    16 1
   11     8    10 1
   12     7    14 1
   13     7    15 1
   14     5    11 1
   15     5     6 1
   16     5     8 1
   17     4     6 1
   18     3    11 1
   19     2     4 1
   20     2    10 1
   21     1     2 1
   22    18    33 1
   23    16    32 1
   24    14    31 1
   25    12    29 1
   26    12    30 1
   27    10    27 1
   28    10    28 1
   29     8    25 1
   30     8    26 1
   31     7    34 1
   32     6    23 1
   33     6    24 1
   34     4    21 1
   35     4    22 1
   36     2    20 1
   37     1    35 1
   38     1    36 1
   39     1    37 1
@<TRIPOS>SUBSTRUCTURE
      1 S73               1 ****               0 ****  **** 
