@<TRIPOS>MOLECULE
Cpptraj Generated mol2 file.
   37    39     1     0     0
SMALL
USER_CHARGES


@<TRIPOS>ATOM
      1 C1         13.6912   -1.5013   23.4289 c3         1 S76      0.083100
      2 N1         12.2554   -1.0526   23.6272 nx         1 S76     -0.679400
      3 O1          8.9337    1.3577   21.1156 o          1 S76     -0.536100
      4 C2         11.3062   -1.9813   22.8639 c3         1 S76      0.075300
      5 N2          9.7261   -0.1495   22.6241 n          1 S76     -0.498800
      6 C3          9.8619   -1.5193   23.1336 c3         1 S76      0.069500
      7 N3          6.2023    0.1827   17.8912 na         1 S76     -0.289100
      8 C4         10.6038    0.8116   23.3021 c3         1 S76      0.069500
      9 N4          4.2367    1.4883   18.6216 nb         1 S76     -0.674000
     10 C5         12.0794    0.3871   23.1401 c3         1 S76      0.075300
     11 C6          8.8903    0.2129   21.5712 c          1 S76      0.659100
     12 C7          7.9549   -0.8447   21.0272 c3         1 S76     -0.049200
     13 C8          7.0930   -0.2927   19.9769 cc         1 S76     -0.160400
     14 C9          7.2362   -0.4534   18.6069 cd         1 S76      0.205400
     15 C10         5.3852    0.7744   18.8482 ca         1 S76      0.462800
     16 C11         3.6355    1.8956   19.7647 ca         1 S76      0.650900
     17 N5          4.0608    1.6695   21.0593 nb         1 S76     -0.693000
     18 C13         5.1868    0.9715   21.2474 ca         1 S76      0.470200
     19 C14         5.9185    0.4963   20.1475 ca         1 S76     -0.302400
     20 HN1        12.0090   -1.1104   24.6577 hn         1 S76      0.448800
     21 H22        11.4641   -3.0443   23.1878 hx         1 S76      0.110450
     22 H23        11.5443   -1.9753   21.7706 hx         1 S76      0.110450
     23 H32         9.1677   -2.2620   22.6740 h1         1 S76      0.097950
     24 H33         9.5948   -1.5522   24.2237 h1         1 S76      0.097950
     25 H42        10.4906    1.8524   22.9122 h1         1 S76      0.097950
     26 H43        10.3082    0.8887   24.3810 h1         1 S76      0.097950
     27 H52        12.7516    1.0877   23.7013 hx         1 S76      0.110450
     28 H53        12.4119    0.4683   22.0784 hx         1 S76      0.110450
     29 H72         8.5552   -1.6905   20.6183 hc         1 S76      0.079700
     30 H73         7.3072   -1.2578   21.8380 hc         1 S76      0.079700
     31 F1          8.1571   -1.1220   17.9447 f          1 S76     -0.125500
     32 H11         2.7016    2.4844   19.6493 h5         1 S76      0.070100
     33 H13         5.5022    0.7887   22.2965 h4         1 S76      0.024100
     34 HN3         6.1186    0.2326   16.8789 hn         1 S76      0.334700
     35 H14        13.8553   -2.5255   23.8337 hx         1 S76      0.106367
     36 H15        13.9721   -1.5152   22.3581 hx         1 S76      0.106367
     37 H16        14.3999   -0.8327   23.9581 hx         1 S76      0.106367
@<TRIPOS>BOND
    1    18    19 1
    2    17    18 1
    3    16    17 1
    4    15    19 1
    5    14    31 1
    6    13    14 1
    7    13    19 1
    8    12    13 1
    9    11    12 1
   10     9    15 1
   11     9    16 1
   12     8    10 1
   13     7    14 1
   14     7    15 1
   15     5    11 1
   16     5     6 1
   17     5     8 1
   18     4     6 1
   19     3    11 1
   20     2     4 1
   21     2    10 1
   22     1     2 1
   23    18    33 1
   24    16    32 1
   25    12    29 1
   26    12    30 1
   27    10    27 1
   28    10    28 1
   29     8    25 1
   30     8    26 1
   31     7    34 1
   32     6    23 1
   33     6    24 1
   34     4    21 1
   35     4    22 1
   36     2    20 1
   37     1    35 1
   38     1    36 1
   39     1    37 1
@<TRIPOS>SUBSTRUCTURE
      1 S76               1 ****               0 ****  **** 
