@<TRIPOS>MOLECULE
S57
   30    32     1     0     1 
SMALL
USER_CHARGES
@<TRIPOS>ATOM
  1 O1      8.724000    0.951000   20.690000 o     1 S57    -0.5901 ****
  2 C1      8.239000    0.003000   21.330000 c     1 S57     0.7551 ****
  3 N1      8.964000   -0.698000   22.286000 ns    1 S57    -0.4541 ****
  4 C2     10.281000   -0.243000   22.596000 ca    1 S57     0.0596 ****
  5 C3     10.429000    0.918000   23.358000 ca    1 S57    -0.1570 ****
  6 C4     11.708000    1.384000   23.642000 ca    1 S57    -0.1085 ****
  7 C5     12.820000    0.695000   23.170000 ca    1 S57    -0.1510 ****
  8 C6     12.660000   -0.471000   22.427000 ca    1 S57    -0.1085 ****
  9 C7     11.391000   -0.951000   22.131000 ca    1 S57    -0.1570 ****
 10 N2      6.907000   -0.423000   21.110000 ns    1 S57    -0.4371 ****
 11 C8      6.231000    0.158000   20.015000 ca    1 S57    -0.0387 ****
 12 C9      5.075000    0.938000   20.184000 ca    1 S57     0.0754 ****
 13 C10     4.498000    1.562000   19.043000 ca    1 S57    -0.2035 ****
 14 C11     5.055000    1.357000   17.767000 ca    1 S57     0.4282 ****
 15 N3      6.129000    0.578000   17.616000 nb    1 S57    -0.6640 ****
 16 C12     6.707000    0.001000   18.715000 ca    1 S57     0.6075 ****
 17 H1      8.646000   -1.581000   22.681000 hn    1 S57     0.3105 ****
 18 H3      9.554000    1.464000   23.726000 ha    1 S57     0.1495 ****
 19 H4     11.830000    2.300000   24.227000 ha    1 S57     0.1330 ****
 20 H5     13.822000    1.086000   23.358000 ha    1 S57     0.1330 ****
 21 H6     13.538000   -1.006000   22.056000 ha    1 S57     0.1330 ****
 22 H7     11.266000   -1.860000   21.532000 ha    1 S57     0.1495 ****
 23 H2      6.340000   -0.789000   21.876000 hn    1 S57     0.3195 ****
 24 N4      3.402000    2.289000   19.509000 na    1 S57    -0.2703 ****
 25 H11     4.653000    1.848000   16.873000 h4    1 S57     0.0341 ****
 26 F1      7.704000   -0.668000   18.470000 f     1 S57    -0.2002 ****
 27 N8      4.333000    1.264000   21.331000 nc    1 S57    -0.5801 ****
 28 C13     3.350000    2.091000   20.896000 cd    1 S57     0.4407 ****
 29 H13     2.577000    2.553000   21.546000 h5    1 S57     0.0758 ****
 30 HN4     2.879000    2.963000   18.958000 hn    1 S57     0.3147 ****
@<TRIPOS>BOND
    1     1     2 1
    2     2     3 1
    3     2    10 1
    4     3     4 1
    5     3    17 1
    6     4     5 1
    7     4     9 1
    8     5     6 1
    9     5    18 1
   10     6     7 1
   11     6    19 1
   12     7     8 1
   13     7    20 1
   14     8     9 1
   15     8    21 1
   16     9    22 1
   17    10    11 1
   18    10    23 1
   19    11    12 1
   20    11    16 1
   21    12    13 1
   22    12    27 1
   23    13    14 1
   24    13    24 1
   25    14    15 1
   26    14    25 1
   27    15    16 1
   28    16    26 1
   29    24    28 1
   30    24    30 1
   31    27    28 1
   32    28    29 1
@<TRIPOS>SUBSTRUCTURE
      1  S57              1 ****               0 ****  **** 
