@<TRIPOS>MOLECULE
S63
   42    43     1     0     0
SMALL
bcc


@<TRIPOS>ATOM
      1 O1           9.2230     1.2370    20.9990 o          1 S63      -0.596100
      2 C1           8.7430     0.4050    21.7710 c          1 S63       0.668100
      3 C2           9.3810    -0.0180    23.0790 c3         1 S63      -0.154400
      4 C3          10.9080    -0.0320    22.9670 c3         1 S63      -0.065700
      5 C4          11.3660    -1.1380    22.0110 c3         1 S63      -0.076900
      6 C5          12.5770    -1.9050    22.5330 c3         1 S63      -0.074900
      7 C6          13.6110    -1.0020    23.1860 c3         1 S63      -0.077400
      8 C7          13.0220    -0.1090    24.2750 c3         1 S63      -0.074900
      9 C8          11.5060    -0.2300    24.3600 c3         1 S63      -0.076900
     10 N1           7.4960    -0.1480    21.5010 ns         1 S63      -0.466100
     11 C9           6.7180     0.3080    20.4050 ca         1 S63      -0.028700
     12 C10          5.4780     0.9140    20.6650 ca         1 S63      -0.171000
     13 C11          4.7230     1.3750    19.5920 ca         1 S63       0.042300
     14 C12          5.2380     1.1790    18.2880 ca         1 S63       0.360200
     15 N2           6.4250     0.5900    18.0320 nb         1 S63      -0.642000
     16 C13          7.1600     0.1670    19.0790 ca         1 S63       0.514500
     17 H22          9.0190    -1.0090    23.4380 hc         1 S63       0.081200
     18 H23          9.0450     0.7050    23.8580 hc         1 S63       0.081200
     19 H3          11.2590     0.9570    22.5760 hc         1 S63       0.055700
     20 H42         10.5520    -1.8630    21.7940 hc         1 S63       0.043450
     21 H43         11.5760    -0.7000    21.0160 hc         1 S63       0.043450
     22 H52         13.0530    -2.4620    21.6990 hc         1 S63       0.041950
     23 H53         12.2540    -2.6930    23.2460 hc         1 S63       0.041950
     24 H62         14.4280    -1.6290    23.6040 hc         1 S63       0.041200
     25 H63         14.1040    -0.3830    22.4100 hc         1 S63       0.041200
     26 H72         13.4810    -0.3550    25.2540 hc         1 S63       0.041950
     27 H73         13.3040     0.9510    24.0920 hc         1 S63       0.041950
     28 H82         11.1020     0.5160    25.0760 hc         1 S63       0.043450
     29 H83         11.2000    -1.2090    24.7820 hc         1 S63       0.043450
     30 H1           7.0490    -0.8080    22.1330 hn         1 S63       0.333500
     31 H10          5.1490     1.0120    21.7090 ha         1 S63       0.186000
     32 N3           3.4180     1.9150    19.7530 nh         1 S63      -0.634000
     33 H12          4.6940     1.5200    17.3960 h4         1 S63       0.034100
     34 F1           8.2290    -0.3650    18.8060 f          1 S63      -0.236200
     35 C14          2.9510     2.1330    21.1470 c3         1 S63       0.170100
     36 C15          3.1510     3.1170    18.9220 c3         1 S63       0.170100
     37 H141         1.9130     2.5140    21.1310 h1         1 S63       0.041867
     38 H142         2.9380     1.1780    21.7000 h1         1 S63       0.041867
     39 H143         3.5440     2.8570    21.7370 h1         1 S63       0.041867
     40 H151         3.6130     3.0500    17.9220 h1         1 S63       0.041867
     41 H152         2.0610     3.2210    18.7650 h1         1 S63       0.041867
     42 H153         3.5140     4.0590    19.3680 h1         1 S63       0.041867
@<TRIPOS>BOND
     1     1     2 2   
     2     2     3 1   
     3     2    10 1   
     4     3     4 1   
     5     3    17 1   
     6     3    18 1   
     7     4     5 1   
     8     4     9 1   
     9     4    19 1   
    10     5     6 1   
    11     5    20 1   
    12     5    21 1   
    13     6     7 1   
    14     6    22 1   
    15     6    23 1   
    16     7     8 1   
    17     7    24 1   
    18     7    25 1   
    19     8     9 1   
    20     8    26 1   
    21     8    27 1   
    22     9    28 1   
    23     9    29 1   
    24    10    11 1   
    25    10    30 1   
    26    11    12 ar  
    27    11    16 ar  
    28    12    13 ar  
    29    12    31 1   
    30    13    14 ar  
    31    13    32 1   
    32    14    15 ar  
    33    14    33 1   
    34    15    16 ar  
    35    16    34 1   
    36    32    35 1   
    37    32    36 1   
    38    35    37 1   
    39    35    38 1   
    40    35    39 1   
    41    36    40 1   
    42    36    41 1   
    43    36    42 1   
@<TRIPOS>SUBSTRUCTURE
     1 S63         1 TEMP              0 ****  ****    0 ROOT
