@<TRIPOS>MOLECULE
S52
   31    33     1     0     0
SMALL
bcc


@<TRIPOS>ATOM
      1 O1           8.8940     1.0060    20.7600 o          1 S52      -0.586100
      2 C1           8.4060     0.0640    21.4060 c          1 S52       0.758100
      3 N1           9.1330    -0.6870    22.3170 ns         1 S52      -0.450100
      4 C2          10.4520    -0.2430    22.6370 ca         1 S52       0.050600
      5 C3          10.6010     0.8960    23.4290 ca         1 S52      -0.152500
      6 C4          11.8790     1.3650    23.6990 ca         1 S52      -0.108500
      7 C5          12.9860     0.6990    23.1900 ca         1 S52      -0.146000
      8 C6          12.8250    -0.4540    22.4310 ca         1 S52      -0.108500
      9 C7          11.5560    -0.9380    22.1430 ca         1 S52      -0.152500
     10 N2           7.0450    -0.2720    21.2540 ns         1 S52      -0.467100
     11 C8           6.3440     0.2850    20.1660 ca         1 S52      -0.065700
     12 C9           5.2010     1.0950    20.3920 ca         1 S52      -0.246600
     13 C10          4.4350     1.4890    19.2830 ca         1 S52       0.285300
     14 C11          4.9220     1.1730    17.9710 ca         1 S52       0.396900
     15 N3           6.0380     0.4890    17.7700 nb         1 S52      -0.658000
     16 C12          6.7360     0.0300    18.8610 ca         1 S52       0.628500
     17 H1           8.8010    -1.5660    22.7100 hn         1 S52       0.308500
     18 H3           9.7250     1.4220    23.8270 ha         1 S52       0.148500
     19 H4          12.0020     2.2720    24.3000 ha         1 S52       0.135500
     20 H5          13.9880     1.1030    23.3570 ha         1 S52       0.135000
     21 H6          13.7020    -0.9750    22.0360 ha         1 S52       0.135500
     22 H7          11.4260    -1.8360    21.5280 ha         1 S52       0.148500
     23 H2           6.5130    -0.7820    21.9620 hn         1 S52       0.310500
     24 N4           3.2260     2.1510    19.4300 nb         1 S52      -0.653000
     25 H11          4.3840     1.5300    17.0820 h4         1 S52       0.055100
     26 F1           7.7350    -0.6260    18.5900 f          1 S52      -0.195200
     27 C15          4.7550     1.5500    21.6780 ca         1 S52       0.444200
     28 H15          5.3280     1.3270    22.6000 h4         1 S52       0.029100
     29 N5           3.6410     2.2470    21.8210 nb         1 S52      -0.672000
     30 C13          2.8830     2.4910    20.6720 ca         1 S52       0.627900
     31 H13          1.9090     3.0190    20.8210 h5         1 S52       0.064100
@<TRIPOS>BOND
     1     1     2 2   
     2     2     3 1   
     3     2    10 1   
     4     3     4 1   
     5     3    17 1   
     6     4     5 ar  
     7     4     9 ar  
     8     5     6 ar  
     9     5    18 1   
    10     6     7 ar  
    11     6    19 1   
    12     7     8 ar  
    13     7    20 1   
    14     8     9 ar  
    15     8    21 1   
    16     9    22 1   
    17    10    11 1   
    18    10    23 1   
    19    11    12 ar  
    20    11    16 ar  
    21    12    13 ar  
    22    12    27 ar  
    23    13    14 ar  
    24    13    24 ar  
    25    14    15 ar  
    26    14    25 1   
    27    15    16 ar  
    28    16    26 1   
    29    24    30 ar  
    30    27    28 1   
    31    27    29 ar  
    32    29    30 ar  
    33    30    31 1   
@<TRIPOS>SUBSTRUCTURE
     1 S52         1 TEMP              0 ****  ****    0 ROOT
