@<TRIPOS>MOLECULE
S49
   29    30     1     0     1 
SMALL
USER_CHARGES
@<TRIPOS>ATOM
  1 O1      8.819000    0.885000   20.720000 o     1 S49    -0.6111 ****
  2 C1      8.292000   -0.022000   21.385000 c     1 S49     0.7731 ****
  3 N1      8.995000   -0.735000   22.349000 ns    1 S49    -0.4591 ****
  4 C2     10.309000   -0.284000   22.681000 ca    1 S49     0.0576 ****
  5 C3     10.442000    0.826000   23.517000 ca    1 S49    -0.1550 ****
  6 C4     11.711000    1.317000   23.793000 ca    1 S49    -0.1085 ****
  7 C5     12.831000    0.697000   23.250000 ca    1 S49    -0.1470 ****
  8 C6     12.687000   -0.430000   22.449000 ca    1 S49    -0.1085 ****
  9 C7     11.426000   -0.931000   22.151000 ca    1 S49    -0.1550 ****
 10 N2      6.939000   -0.376000   21.192000 ns    1 S49    -0.4571 ****
 11 C8      6.280000    0.201000   20.080000 ca    1 S49    -0.0247 ****
 12 C9      5.146000    0.988000   20.253000 ca    1 S49    -0.1620 ****
 13 C10     4.537000    1.534000   19.112000 ca    1 S49     0.0473 ****
 14 C11     5.103000    1.245000   17.846000 ca    1 S49     0.3342 ****
 15 N3      6.197000    0.481000   17.688000 nb    1 S49    -0.6300 ****
 16 C12     6.783000   -0.036000   18.786000 ca    1 S49     0.5085 ****
 17 H1      8.632000   -1.570000   22.803000 hn    1 S49     0.3115 ****
 18 H3      9.559000    1.315000   23.946000 ha    1 S49     0.1485 ****
 19 H4     11.818000    2.203000   24.426000 ha    1 S49     0.1345 ****
 20 H5     13.825000    1.115000   23.426000 ha    1 S49     0.1350 ****
 21 H6     13.574000   -0.920000   22.035000 ha    1 S49     0.1345 ****
 22 H7     11.315000   -1.805000   21.500000 ha    1 S49     0.1485 ****
 23 H2      6.362000   -0.718000   21.963000 hn    1 S49     0.3215 ****
 24 H9      4.753000    1.201000   21.254000 ha    1 S49     0.1810 ****
 25 N4      3.366000    2.263000   19.220000 nv    1 S49    -0.8142 ****
 26 H11     4.697000    1.679000   16.927000 h4    1 S49     0.0311 ****
 27 F1      7.789000   -0.707000   18.586000 f     1 S49    -0.2362 ****
 28 H41     3.192000    2.736000   20.098000 hn    1 S49     0.4008 ****
 29 H42     3.083000    2.799000   18.411000 hn    1 S49     0.4008 ****
@<TRIPOS>BOND
    1     1     2 1
    2     2     3 1
    3     2    10 1
    4     3     4 1
    5     3    17 1
    6     4     5 1
    7     4     9 1
    8     5     6 1
    9     5    18 1
   10     6     7 1
   11     6    19 1
   12     7     8 1
   13     7    20 1
   14     8     9 1
   15     8    21 1
   16     9    22 1
   17    10    11 1
   18    10    23 1
   19    11    12 1
   20    11    16 1
   21    12    13 1
   22    12    24 1
   23    13    14 1
   24    13    25 1
   25    14    15 1
   26    14    26 1
   27    15    16 1
   28    16    27 1
   29    25    28 1
   30    25    29 1
@<TRIPOS>SUBSTRUCTURE
      1  S49              1 ****               0 ****  **** 
