@<TRIPOS>MOLECULE
S51
   35    36     1     0     0
SMALL
bcc


@<TRIPOS>ATOM
      1 O1           8.7920     0.8760    20.6980 o          1 S51      -0.612100
      2 C1           8.3380    -0.1150    21.2920 c          1 S51       0.772100
      3 N1           9.0890    -0.8320    22.2230 ns         1 S51      -0.460100
      4 C2          10.3700    -0.3210    22.5850 ca         1 S51       0.058600
      5 C3          10.4340     0.8040    23.4120 ca         1 S51      -0.155000
      6 C4          11.6780     1.3310    23.7390 ca         1 S51      -0.109000
      7 C5          12.8330     0.7340    23.2500 ca         1 S51      -0.148000
      8 C6          12.7580    -0.4030    22.4560 ca         1 S51      -0.109000
      9 C7          11.5270    -0.9430    22.1130 ca         1 S51      -0.155000
     10 N2           7.0300    -0.5730    21.0620 ns         1 S51      -0.456100
     11 C8           6.2780     0.1040    20.0630 ca         1 S51      -0.029700
     12 C9           5.1650     0.8620    20.4160 ca         1 S51      -0.159000
     13 C10          4.4390     1.5100    19.4050 ca         1 S51       0.064300
     14 C11          4.8980     1.3490    18.0730 ca         1 S51       0.338200
     15 N3           5.9720     0.6190    17.7310 nb         1 S51      -0.634000
     16 C12          6.6610     0.0050    18.7170 ca         1 S51       0.508500
     17 H1           8.8010    -1.7370    22.5880 hn         1 S51       0.311500
     18 H3           9.5190     1.2710    23.8000 ha         1 S51       0.148500
     19 H4          11.7330     2.2250    24.3750 ha         1 S51       0.134500
     20 H5          13.8070     1.1830    23.4620 ha         1 S51       0.134000
     21 H6          13.6750    -0.8720    22.0820 ha         1 S51       0.134500
     22 H7          11.4650    -1.8310    21.4750 ha         1 S51       0.148500
     23 H2           6.5040    -1.0940    21.7680 hn         1 S51       0.320500
     24 H9           4.8810     0.9480    21.4740 ha         1 S51       0.182000
     25 N4           3.2190     2.1670    19.7060 nh         1 S51      -0.646000
     26 H11          4.3860     1.8560    17.2350 h4         1 S51       0.032100
     27 F1           7.6440    -0.6380    18.3680 f          1 S51      -0.237200
     28 C13          3.0810     2.6520    21.1040 c3         1 S51       0.181100
     29 C14          2.7710     3.2020    18.7430 c3         1 S51       0.181100
     30 H131         2.1300     3.1990    21.2220 h1         1 S51       0.043367
     31 H132         3.0590     1.7980    21.8010 h1         1 S51       0.043367
     32 H133         3.8860     3.3340    21.4280 h1         1 S51       0.043367
     33 H141         1.6640     3.1940    18.7130 h1         1 S51       0.043367
     34 H142         3.1310     3.0340    17.7130 h1         1 S51       0.043367
     35 H143         3.0850     4.2280    19.0030 h1         1 S51       0.043367
@<TRIPOS>BOND
     1     1     2 2   
     2     2     3 1   
     3     2    10 1   
     4     3     4 1   
     5     3    17 1   
     6     4     5 ar  
     7     4     9 ar  
     8     5     6 ar  
     9     5    18 1   
    10     6     7 ar  
    11     6    19 1   
    12     7     8 ar  
    13     7    20 1   
    14     8     9 ar  
    15     8    21 1   
    16     9    22 1   
    17    10    11 1   
    18    10    23 1   
    19    11    12 ar  
    20    11    16 ar  
    21    12    13 ar  
    22    12    24 1   
    23    13    14 ar  
    24    13    25 1   
    25    14    15 ar  
    26    14    26 1   
    27    15    16 ar  
    28    16    27 1   
    29    25    28 1   
    30    25    29 1   
    31    28    30 1   
    32    28    31 1   
    33    28    32 1   
    34    29    33 1   
    35    29    34 1   
    36    29    35 1   
@<TRIPOS>SUBSTRUCTURE
     1 S51         1 TEMP              0 ****  ****    0 ROOT
