@<TRIPOS>MOLECULE
S54
   31    33     1     0     0
SMALL
bcc


@<TRIPOS>ATOM
      1 O1           8.7460     0.9600    20.7160 o          1 S54      -0.585100
      2 C1           8.2450     0.0160    21.3490 c          1 S54       0.750100
      3 N1           8.9640    -0.6900    22.3100 ns         1 S54      -0.453100
      4 C2          10.2830    -0.2420    22.6210 ca         1 S54       0.056600
      5 C3          10.4360     0.9120    23.3920 ca         1 S54      -0.156000
      6 C4          11.7170     1.3740    23.6700 ca         1 S54      -0.108500
      7 C5          12.8260     0.6920    23.1860 ca         1 S54      -0.150000
      8 C6          12.6600    -0.4680    22.4380 ca         1 S54      -0.108500
      9 C7          11.3900    -0.9470    22.1450 ca         1 S54      -0.156000
     10 N2           6.9140    -0.3890    21.1280 ns         1 S54      -0.441100
     11 C8           6.2430     0.1830    20.0220 ca         1 S54      -0.058700
     12 C9           5.0860     0.9600    20.1900 ca         1 S54      -0.077800
     13 C10          4.5160     1.5560    19.0310 ca         1 S54      -0.178500
     14 C11          5.0850     1.3380    17.7620 ca         1 S54       0.422200
     15 N3           6.1670     0.5680    17.6190 nb         1 S54      -0.667000
     16 C12          6.7360     0.0090    18.7320 ca         1 S54       0.603500
     17 H1           8.6400    -1.5650    22.7140 hn         1 S54       0.306500
     18 H3           9.5620     1.4540    23.7710 ha         1 S54       0.148500
     19 H4          11.8420     2.2870    24.2620 ha         1 S54       0.133000
     20 H5          13.8300     1.0830    23.3700 ha         1 S54       0.133000
     21 H6          13.5370    -1.0010    22.0580 ha         1 S54       0.133000
     22 H7          11.2630    -1.8510    21.5400 ha         1 S54       0.148500
     23 H2           6.3510    -0.8390    21.8490 hn         1 S54       0.305500
     24 N4           3.4070     2.2940    19.4310 na         1 S54      -0.175400
     25 H11          4.6870     1.8210    16.8630 h4         1 S54       0.030100
     26 F1           7.7440    -0.6490    18.5010 f          1 S54      -0.206200
     27 C14          4.2940     1.3590    21.3060 cc         1 S54      -0.204200
     28 H14          4.4670     1.0830    22.3400 ha         1 S54       0.159000
     29 C13          3.2930     2.1860    20.8210 cd         1 S54      -0.082100
     30 H13          2.4970     2.7000    21.3750 h4         1 S54       0.172000
     31 HN4          2.9120     2.9480    18.8340 hn         1 S54       0.306700
@<TRIPOS>BOND
     1     1     2 2   
     2     2     3 1   
     3     2    10 1   
     4     3     4 1   
     5     3    17 1   
     6     4     5 ar  
     7     4     9 ar  
     8     5     6 ar  
     9     5    18 1   
    10     6     7 ar  
    11     6    19 1   
    12     7     8 ar  
    13     7    20 1   
    14     8     9 ar  
    15     8    21 1   
    16     9    22 1   
    17    10    11 1   
    18    10    23 1   
    19    11    12 ar  
    20    11    16 ar  
    21    12    13 ar  
    22    12    27 1   
    23    13    14 ar  
    24    13    24 1   
    25    14    15 ar  
    26    14    25 1   
    27    15    16 ar  
    28    16    26 1   
    29    24    29 1   
    30    24    31 1   
    31    27    28 1   
    32    27    29 2   
    33    29    30 1   
@<TRIPOS>SUBSTRUCTURE
     1 S54         1 TEMP              0 ****  ****    0 ROOT
