@<TRIPOS>MOLECULE
S62
   39    40     1     0     1 
SMALL
USER_CHARGES
@<TRIPOS>ATOM
  1 O1      9.312000    1.204000   21.010000 o     1 S62    -0.5911 ****
  2 C1      8.747000    0.473000   21.829000 c     1 S62     0.6701 ****
  3 C2      9.356000    0.036000   23.142000 c3    1 S62    -0.1524 ****
  4 C3     10.882000    0.005000   23.046000 c3    1 S62    -0.0617 ****
  5 C4     11.330000   -1.059000   22.039000 c3    1 S62    -0.0759 ****
  6 C5     12.538000   -1.858000   22.518000 c3    1 S62    -0.0749 ****
  7 C6     13.579000   -0.993000   23.207000 c3    1 S62    -0.0774 ****
  8 C7     12.994000   -0.146000   24.334000 c3    1 S62    -0.0749 ****
  9 C8     11.480000   -0.265000   24.427000 c3    1 S62    -0.0759 ****
 10 N1      7.438000    0.056000   21.593000 ns    1 S62    -0.4651 ****
 11 C9      6.769000    0.413000   20.398000 ca    1 S62    -0.0167 ****
 12 C10     5.527000    1.043000   20.471000 ca    1 S62    -0.1800 ****
 13 C11     4.893000    1.407000   19.276000 ca    1 S62     0.0563 ****
 14 C12     5.543000    1.090000   18.056000 ca    1 S62     0.3272 ****
 15 N2      6.735000    0.472000   17.991000 nb    1 S62    -0.6290 ****
 16 C13     7.345000    0.137000   19.144000 ca    1 S62     0.4995 ****
 17 H22     8.973000   -0.956000   23.476000 hc    1 S62     0.0747 ****
 18 H23     9.018000    0.753000   23.925000 hc    1 S62     0.0747 ****
 19 H3     11.246000    1.008000   22.704000 hc    1 S62     0.0647 ****
 20 H42    10.512000   -1.769000   21.794000 hc    1 S62     0.0409 ****
 21 H43    11.536000   -0.573000   21.067000 hc    1 S62     0.0409 ****
 22 H52    13.004000   -2.379000   21.655000 hc    1 S62     0.0425 ****
 23 H53    12.214000   -2.675000   23.197000 hc    1 S62     0.0425 ****
 24 H62    14.392000   -1.642000   23.597000 hc    1 S62     0.0422 ****
 25 H63    14.081000   -0.344000   22.462000 hc    1 S62     0.0422 ****
 26 H72    13.466000   -0.426000   25.297000 hc    1 S62     0.0425 ****
 27 H73    13.275000    0.920000   24.190000 hc    1 S62     0.0425 ****
 28 H82    11.081000    0.448000   25.178000 hc    1 S62     0.0409 ****
 29 H83    11.172000   -1.263000   24.803000 hc    1 S62     0.0409 ****
 30 H1      6.894000   -0.433000   22.307000 hn    1 S62     0.3315 ****
 31 H10     5.075000    1.247000   21.450000 ha    1 S62     0.1850 ****
 32 N3      3.630000    1.989000   19.241000 nu    1 S62    -0.7266 ****
 33 H12     5.113000    1.362000   17.086000 h4    1 S62     0.0291 ****
 34 F1      8.425000   -0.430000   19.029000 f     1 S62    -0.2372 ****
 35 C14     3.076000    2.589000   20.458000 c3    1 S62     0.1731 ****
 36 HN3     3.389000    2.454000   18.364000 hn    1 S62     0.4048 ****
 37 H141    2.146000    3.135000   20.215000 h1    1 S62     0.0440 ****
 38 H142    2.829000    1.811000   21.205000 h1    1 S62     0.0440 ****
 39 H143    3.744000    3.322000   20.948000 h1    1 S62     0.0440 ****
@<TRIPOS>BOND
    1     1     2 1
    2     2     3 1
    3     2    10 1
    4     3     4 1
    5     3    17 1
    6     3    18 1
    7     4     5 1
    8     4     9 1
    9     4    19 1
   10     5     6 1
   11     5    20 1
   12     5    21 1
   13     6     7 1
   14     6    22 1
   15     6    23 1
   16     7     8 1
   17     7    24 1
   18     7    25 1
   19     8     9 1
   20     8    26 1
   21     8    27 1
   22     9    28 1
   23     9    29 1
   24    10    11 1
   25    10    30 1
   26    11    12 1
   27    11    16 1
   28    12    13 1
   29    12    31 1
   30    13    14 1
   31    13    32 1
   32    14    15 1
   33    14    33 1
   34    15    16 1
   35    16    34 1
   36    32    35 1
   37    32    36 1
   38    35    37 1
   39    35    38 1
   40    35    39 1
@<TRIPOS>SUBSTRUCTURE
      1  S62              1 ****               0 ****  **** 
