@<TRIPOS>MOLECULE
S59
   31    33     1     0     0
SMALL
bcc


@<TRIPOS>ATOM
      1 O1           8.8440     0.9160    20.7030 o          1 S59      -0.594100
      2 C1           8.3780    -0.0300    21.3600 c          1 S59       0.755100
      3 N1           9.1170    -0.7320    22.3010 ns         1 S59      -0.452100
      4 C2          10.4240    -0.2540    22.6200 ca         1 S59       0.057600
      5 C3          10.5450     0.8880    23.4140 ca         1 S59      -0.156000
      6 C4          11.8120     1.3780    23.6990 ca         1 S59      -0.108500
      7 C5          12.9380     0.7330    23.2020 ca         1 S59      -0.149000
      8 C6          12.8030    -0.4200    22.4360 ca         1 S59      -0.108500
      9 C7          11.5450    -0.9260    22.1320 ca         1 S59      -0.156000
     10 N2           7.0400    -0.4570    21.1740 ns         1 S59      -0.437100
     11 C8           6.3220     0.1240    20.1130 ca         1 S59      -0.140000
     12 C9           5.1300     0.8670    20.3610 ca         1 S59       0.308300
     13 C10          4.4130     1.3720    19.2590 ca         1 S59       0.154000
     14 C11          4.9360     1.1580    17.9460 ca         1 S59       0.408900
     15 N3           6.0640     0.4930    17.7280 nb         1 S59      -0.668000
     16 C12          6.7480    -0.0220    18.8020 ca         1 S59       0.639500
     17 H1           8.7990    -1.6040    22.7210 hn         1 S59       0.310500
     18 H3           9.6560     1.3960    23.8060 ha         1 S59       0.149000
     19 H4          11.9130     2.2830    24.3060 ha         1 S59       0.134000
     20 H5          13.9320     1.1500    23.3850 ha         1 S59       0.134000
     21 H6          13.6930    -0.9270    22.0530 ha         1 S59       0.134000
     22 H7          11.4390    -1.8260    21.5150 ha         1 S59       0.149000
     23 H2           6.5000    -0.8160    21.9670 hn         1 S59       0.318500
     24 H11          4.4190     1.5740    17.0690 h4         1 S59       0.053100
     25 F1           7.7720    -0.6300    18.5120 f          1 S59      -0.192200
     26 N6           4.6920     1.0800    21.6630 nb         1 S59      -0.645000
     27 C14          3.5850     1.7800    21.8150 ca         1 S59       0.324900
     28 C15          2.8210     2.2590    20.6780 ca         1 S59       0.286900
     29 H142         3.2340     1.9730    22.8540 h4         1 S59       0.041100
     30 N5           3.2150     2.0530    19.4350 nb         1 S59      -0.594000
     31 H152         1.8620     2.7980    20.8220 h4         1 S59       0.043100
@<TRIPOS>BOND
     1     1     2 2   
     2     2     3 1   
     3     2    10 1   
     4     3     4 1   
     5     3    17 1   
     6     4     5 ar  
     7     4     9 ar  
     8     5     6 ar  
     9     5    18 1   
    10     6     7 ar  
    11     6    19 1   
    12     7     8 ar  
    13     7    20 1   
    14     8     9 ar  
    15     8    21 1   
    16     9    22 1   
    17    10    11 1   
    18    10    23 1   
    19    11    12 ar  
    20    11    16 ar  
    21    12    13 ar  
    22    12    26 ar  
    23    13    14 ar  
    24    13    30 ar  
    25    14    15 ar  
    26    14    24 1   
    27    15    16 ar  
    28    16    25 1   
    29    26    27 ar  
    30    27    28 ar  
    31    27    29 1   
    32    28    30 ar  
    33    28    31 1   
@<TRIPOS>SUBSTRUCTURE
     1 S59         1 TEMP              0 ****  ****    0 ROOT
