@<TRIPOS>MOLECULE
S58
   30    32     1     0     0
SMALL
bcc


@<TRIPOS>ATOM
      1 O1           8.8490     0.8660    20.7180 o          1 S58      -0.582100
      2 C1           8.3560    -0.0940    21.3340 c          1 S58       0.754100
      3 N1           9.0640    -0.8090    22.2970 ns         1 S58      -0.451100
      4 C2          10.3570    -0.3280    22.6470 ca         1 S58       0.053600
      5 C3          10.4480     0.7790    23.4980 ca         1 S58      -0.154000
      6 C4          11.7030     1.2980    23.7940 ca         1 S58      -0.108500
      7 C5          12.8460     0.7120    23.2600 ca         1 S58      -0.148000
      8 C6          12.7400    -0.4110    22.4520 ca         1 S58      -0.108500
      9 C7          11.4980    -0.9420    22.1310 ca         1 S58      -0.154000
     10 N2           7.0220    -0.4850    21.1120 ns         1 S58      -0.450100
     11 C8           6.3460     0.1000    20.0230 ca         1 S58      -0.027700
     12 C9           5.1490     0.8160    20.2150 ca         1 S58      -0.203900
     13 C10          4.5460     1.4320    19.0870 ca         1 S58      -0.175500
     14 C11          5.1220     1.2930    17.7980 ca         1 S58       0.422200
     15 N3           6.2350     0.5870    17.6370 nb         1 S58      -0.651000
     16 C12          6.8360     0.0080    18.7280 ca         1 S58       0.595500
     17 H1           8.7510    -1.6990    22.6750 hn         1 S58       0.308500
     18 H3           9.5500     1.2420    23.9170 ha         1 S58       0.148500
     19 H4          11.7810     2.1800    24.4380 ha         1 S58       0.135000
     20 H5          13.8280     1.1550    23.4530 ha         1 S58       0.134000
     21 H6          13.6430    -0.8750    22.0470 ha         1 S58       0.135000
     22 H7          11.4170    -1.8110    21.4720 ha         1 S58       0.148500
     23 H2           6.4830    -1.0240    21.7840 hn         1 S58       0.309500
     24 N4           3.3910     2.0560    19.5490 na         1 S58      -0.004100
     25 H11          4.6950     1.7900    16.9230 h4         1 S58       0.037100
     26 F1           7.8650    -0.6010    18.4610 f          1 S58      -0.201200
     27 C14          4.3040     1.1350    21.3260 cc         1 S58       0.331800
     28 N7           3.2700     1.8940    20.8950 nd         1 S58      -0.486100
     29 HN4          2.8290     2.7470    19.0630 hn         1 S58       0.334700
     30 H14          4.4340     0.8470    22.3770 h4         1 S58       0.057800
@<TRIPOS>BOND
     1     1     2 2   
     2     2     3 1   
     3     2    10 1   
     4     3     4 1   
     5     3    17 1   
     6     4     5 ar  
     7     4     9 ar  
     8     5     6 ar  
     9     5    18 1   
    10     6     7 ar  
    11     6    19 1   
    12     7     8 ar  
    13     7    20 1   
    14     8     9 ar  
    15     8    21 1   
    16     9    22 1   
    17    10    11 1   
    18    10    23 1   
    19    11    12 ar  
    20    11    16 ar  
    21    12    13 ar  
    22    12    27 1   
    23    13    14 ar  
    24    13    24 1   
    25    14    15 ar  
    26    14    25 1   
    27    15    16 ar  
    28    16    26 1   
    29    24    28 1   
    30    24    29 1   
    31    27    28 2   
    32    27    30 1   
@<TRIPOS>SUBSTRUCTURE
     1 S58         1 TEMP              0 ****  ****    0 ROOT
