@<TRIPOS>MOLECULE
Cpptraj Generated mol2 file.
   39    41     1     0     0
SMALL
USER_CHARGES


@<TRIPOS>ATOM
      1 O1          9.3309    1.2904   20.9742 o          1 S65     -0.577100
      2 C1          8.7818    0.6253   21.8602 c          1 S65      0.655100
      3 C2          9.4214    0.2113   23.1635 c3         1 S65     -0.153400
      4 C3         10.9397    0.0852   23.0191 c3         1 S65     -0.062700
      5 C4         11.2960   -1.0396   22.0446 c3         1 S65     -0.076900
      6 C5         12.4805   -1.8802   22.5096 c3         1 S65     -0.074400
      7 C6         13.5816   -1.0431   23.1392 c3         1 S65     -0.077400
      8 C7         13.0729   -0.1449   24.2639 c3         1 S65     -0.074400
      9 C8         11.5557   -0.1798   24.3925 c3         1 S65     -0.076900
     10 N1          7.4359    0.2824   21.7141 ns         1 S65     -0.462100
     11 C9          6.6857    0.6350   20.5808 ca         1 S65     -0.063700
     12 C10         5.4260    1.2818   20.7311 ca         1 S65     -0.099300
     13 C11         4.6271    1.4565   19.5899 ca         1 S65      0.272300
     14 C12         5.1424    1.0728   18.3042 ca         1 S65      0.390900
     15 N2          6.3496    0.5635   18.1338 nb         1 S65     -0.661000
     16 C13         7.1100    0.3396   19.2831 ca         1 S65      0.550500
     17 H22         8.9983   -0.7436   23.5541 hc         1 S65      0.074700
     18 H23         9.1546    0.9781   23.9275 hc         1 S65      0.074700
     19 H3         11.3497    1.0528   22.6288 hc         1 S65      0.066700
     20 H42        10.4359   -1.7176   21.8556 hc         1 S65      0.041200
     21 H43        11.4923   -0.6025   21.0480 hc         1 S65      0.041200
     22 H52        12.8953   -2.4435   21.6485 hc         1 S65      0.042450
     23 H53        12.1438   -2.6636   23.2218 hc         1 S65      0.042450
     24 H62        14.3798   -1.7169   23.5180 hc         1 S65      0.043200
     25 H63        14.0810   -0.4362   22.3584 hc         1 S65      0.043200
     26 H72        13.5465   -0.4351   25.2240 hc         1 S65      0.042450
     27 H73        13.4082    0.8994   24.0882 hc         1 S65      0.042450
     28 H82        11.2106    0.5716   25.1322 hc         1 S65      0.041200
     29 H83        11.2094   -1.1501   24.8041 hc         1 S65      0.041200
     30 H1          6.9418   -0.2621   22.4301 hn         1 S65      0.319500
     31 C16         4.9348    1.7575   21.9762 ca         1 S65     -0.059000
     32 N3          3.3476    1.9823   19.6499 nb         1 S65     -0.645000
     33 H12         4.5451    1.2119   17.3949 h4         1 S65      0.050100
     34 F1          8.2801   -0.1875   19.0387 f          1 S65     -0.228200
     35 C14         2.9150    2.3884   20.8354 ca         1 S65      0.413200
     36 C15         3.6945    2.3242   22.0309 ca         1 S65     -0.236300
     37 H14         1.8827    2.7871   20.8504 h4         1 S65      0.028100
     38 H15         3.2736    2.7148   22.9700 ha         1 S65      0.151000
     39 H16         5.5481    1.6677   22.8874 ha         1 S65      0.160000
@<TRIPOS>BOND
    1    35    36 1
    2    32    35 1
    3    31    36 1
    4    16    34 1
    5    15    16 1
    6    14    15 1
    7    13    14 1
    8    13    32 1
    9    12    13 1
   10    12    31 1
   11    11    12 1
   12    11    16 1
   13    10    11 1
   14     8     9 1
   15     7     8 1
   16     6     7 1
   17     5     6 1
   18     4     5 1
   19     4     9 1
   20     3     4 1
   21     2     3 1
   22     2    10 1
   23     1     2 1
   24    36    38 1
   25    35    37 1
   26    31    39 1
   27    14    33 1
   28    10    30 1
   29     9    28 1
   30     9    29 1
   31     8    26 1
   32     8    27 1
   33     7    24 1
   34     7    25 1
   35     6    22 1
   36     6    23 1
   37     5    20 1
   38     5    21 1
   39     4    19 1
   40     3    17 1
   41     3    18 1
@<TRIPOS>SUBSTRUCTURE
      1 S65               1 ****               0 ****  **** 
