@<TRIPOS>MOLECULE
Cpptraj Generated mol2 file.
   38    40     1     0     0
SMALL
USER_CHARGES


@<TRIPOS>ATOM
      1 O1          9.4203    1.2558   20.9603 o          1 S71     -0.568100
      2 C1          8.8312    0.7100   21.8914 c          1 S71      0.658100
      3 C2          9.4526    0.2759   23.1979 c3         1 S71     -0.148400
      4 C3         10.9683    0.1189   23.0514 c3         1 S71     -0.059700
      5 C4         11.3038   -0.9809   22.0416 c3         1 S71     -0.075400
      6 C5         12.4763   -1.8528   22.4785 c3         1 S71     -0.074900
      7 C6         13.5889   -1.0519   23.1348 c3         1 S71     -0.077400
      8 C7         13.0928   -0.1796   24.2852 c3         1 S71     -0.074900
      9 C8         11.5756   -0.2051   24.4156 c3         1 S71     -0.075400
     10 N1          7.4502    0.4870   21.7889 ns         1 S71     -0.461100
     11 C9          6.7292    0.7681   20.6214 ca         1 S71     -0.117000
     12 C10         5.4562    1.4056   20.6960 ca         1 S71      0.300300
     13 C11         4.6538    1.4796   19.5412 ca         1 S71      0.160000
     14 C12         5.1901    1.0190   18.2982 ca         1 S71      0.394900
     15 N2          6.4139    0.5246   18.1828 nb         1 S71     -0.661000
     16 C13         7.1568    0.3928   19.3470 ca         1 S71      0.610500
     17 H22         9.0023   -0.6743   23.5690 hc         1 S71      0.073700
     18 H23         9.2004    1.0377   23.9709 hc         1 S71      0.073700
     19 H3         11.3988    1.0904   22.6924 hc         1 S71      0.067700
     20 H42        10.4313   -1.6376   21.8363 hc         1 S71      0.040700
     21 H43        11.5068   -0.5194   21.0571 hc         1 S71      0.040700
     22 H52        12.8822   -2.3930   21.5986 hc         1 S71      0.040950
     23 H53        12.1282   -2.6540   23.1647 hc         1 S71      0.040950
     24 H62        14.3760   -1.7482   23.4952 hc         1 S71      0.042200
     25 H63        14.0978   -0.4293   22.3726 hc         1 S71      0.042200
     26 H72        13.5710   -0.4971   25.2338 hc         1 S71      0.040950
     27 H73        13.4338    0.8667   24.1354 hc         1 S71      0.040950
     28 H82        11.2349    0.5202   25.1821 hc         1 S71      0.040700
     29 H83        11.2166   -1.1860   24.7891 hc         1 S71      0.040700
     30 H1          6.8972    0.2482   22.6192 hn         1 S71      0.334500
     31 N6          5.0197    1.9322   21.9084 nb         1 S71     -0.641000
     32 N3          3.3610    1.9798   19.5989 nb         1 S71     -0.596000
     33 H12         4.6030    1.0760   17.3726 h4         1 S71      0.052100
     34 F1          8.3487   -0.1384   19.1470 f          1 S71     -0.193200
     35 C14         2.9523    2.4510   20.7611 ca         1 S71      0.287900
     36 C15         3.8089    2.4592   21.9316 ca         1 S71      0.318900
     37 H142        1.9107    2.8318   20.8180 h4         1 S71      0.041100
     38 H11         3.4563    2.8839   22.8965 h4         1 S71      0.039100
@<TRIPOS>BOND
    1    35    36 1
    2    32    35 1
    3    31    36 1
    4    16    34 1
    5    15    16 1
    6    14    15 1
    7    13    14 1
    8    13    32 1
    9    12    13 1
   10    12    31 1
   11    11    12 1
   12    11    16 1
   13    10    11 1
   14     8     9 1
   15     7     8 1
   16     6     7 1
   17     5     6 1
   18     4     5 1
   19     4     9 1
   20     3     4 1
   21     2     3 1
   22     2    10 1
   23     1     2 1
   24    36    38 1
   25    35    37 1
   26    14    33 1
   27    10    30 1
   28     9    28 1
   29     9    29 1
   30     8    26 1
   31     8    27 1
   32     7    24 1
   33     7    25 1
   34     6    22 1
   35     6    23 1
   36     5    20 1
   37     5    21 1
   38     4    19 1
   39     3    17 1
   40     3    18 1
@<TRIPOS>SUBSTRUCTURE
      1 S71               1 ****               0 ****  **** 
