@<TRIPOS>MOLECULE
Cpptraj Generated mol2 file.
   37    39     1     0     0
SMALL
USER_CHARGES


@<TRIPOS>ATOM
      1 O1          9.3070    1.2705   20.9357 o          1 S67     -0.563100
      2 C1          8.7327    0.7085   21.8558 c          1 S67      0.661100
      3 C2          9.3584    0.3442   23.1947 c3         1 S67     -0.148400
      4 C3         10.8576    0.1141   23.0312 c3         1 S67     -0.060700
      5 C4         11.1314   -1.0772   22.1035 c3         1 S67     -0.074900
      6 C5         12.3628   -1.8810   22.5214 c3         1 S67     -0.075400
      7 C6         13.4676   -0.9991   23.0827 c3         1 S67     -0.077400
      8 C7         13.0055   -0.1538   24.2655 c3         1 S67     -0.075400
      9 C8         11.4873   -0.1365   24.4036 c3         1 S67     -0.074900
     10 N1          7.3558    0.4260   21.7372 ns         1 S67     -0.468100
     11 C9          6.6480    0.6938   20.5653 cc         1 S67     -0.062700
     12 C10         5.3523    1.2960   20.6897 cc         1 S67     -0.051300
     13 N4          4.5868    1.4755   19.4934 na         1 S67      0.026200
     14 C12         5.1176    1.1485   18.2441 cc         1 S67      0.560400
     15 N2          6.3240    0.6373   18.1135 nd         1 S67     -0.688000
     16 C13         7.0680    0.4027   19.2878 cd         1 S67      0.598500
     17 H22         8.8839   -0.5470   23.6526 hc         1 S67      0.073700
     18 H23         9.1532    1.1833   23.8878 hc         1 S67      0.073700
     19 H3         11.3346    1.0351   22.5942 hc         1 S67      0.068700
     20 H42        10.2591   -1.7610   22.0574 hc         1 S67      0.039700
     21 H43        11.2293   -0.7129   21.0617 hc         1 S67      0.039700
     22 H52        12.7444   -2.4450   21.6465 hc         1 S67      0.041950
     23 H53        12.0824   -2.6569   23.2627 hc         1 S67      0.041950
     24 H62        14.3299   -1.6373   23.3760 hc         1 S67      0.042700
     25 H63        13.8736   -0.3532   22.2772 hc         1 S67      0.042700
     26 H72        13.4738   -0.5279   25.1999 hc         1 S67      0.041950
     27 H73        13.3834    0.8837   24.1513 hc         1 S67      0.041950
     28 H82        11.1767    0.6447   25.1302 hc         1 S67      0.039700
     29 H83        11.1082   -1.0864   24.8400 hc         1 S67      0.039700
     30 H1          6.8134    0.0622   22.5341 hn         1 S67      0.326500
     31 C15         4.5838    1.7739   21.7305 cd         1 S67     -0.332600
     32 N3          3.3625    2.0410   19.7805 nc         1 S67     -0.546100
     33 H12         4.5038    1.3220   17.3370 h5         1 S67      0.081100
     34 F1          8.2620   -0.1134   19.0454 f          1 S67     -0.190200
     35 C14         3.3587    2.2238   21.1250 cd         1 S67      0.381500
     36 H14         2.4817    2.6724   21.6429 h4         1 S67      0.057800
     37 H15         4.8118    1.7859   22.7934 ha         1 S67      0.169000
@<TRIPOS>BOND
    1    32    35 1
    2    31    35 1
    3    16    34 1
    4    15    16 1
    5    14    15 1
    6    13    14 1
    7    13    32 1
    8    12    13 1
    9    12    31 1
   10    11    12 1
   11    11    16 1
   12    10    11 1
   13     8     9 1
   14     7     8 1
   15     6     7 1
   16     5     6 1
   17     4     5 1
   18     4     9 1
   19     3     4 1
   20     2     3 1
   21     2    10 1
   22     1     2 1
   23    35    36 1
   24    31    37 1
   25    14    33 1
   26    10    30 1
   27     9    28 1
   28     9    29 1
   29     8    26 1
   30     8    27 1
   31     7    24 1
   32     7    25 1
   33     6    22 1
   34     6    23 1
   35     5    20 1
   36     5    21 1
   37     4    19 1
   38     3    17 1
   39     3    18 1
@<TRIPOS>SUBSTRUCTURE
      1 S67               1 ****               0 ****  **** 
