@<TRIPOS>MOLECULE
Cpptraj Generated mol2 file.
   30    32     1     0     0
SMALL
USER_CHARGES


@<TRIPOS>ATOM
      1 O1          8.7307    1.1713   20.7936 o          1 S56     -0.597100
      2 C1          8.3594    0.1215   21.3367 c          1 S56      0.759100
      3 N1          9.1517   -0.6108   22.2088 ns         1 S56     -0.454100
      4 C2         10.4578   -0.1196   22.5072 ca         1 S56      0.051600
      5 C3         10.5957    1.1214   23.1281 ca         1 S56     -0.152500
      6 C4         11.8707    1.5970   23.4049 ca         1 S56     -0.108500
      7 C5         12.9842    0.8377   23.0696 ca         1 S56     -0.144000
      8 C6         12.8331   -0.4045   22.4657 ca         1 S56     -0.108500
      9 C7         11.5693   -0.9008   22.1805 ca         1 S56     -0.152500
     10 N2          7.0507   -0.3679   21.1116 ns         1 S56     -0.451100
     11 C8          6.3150    0.2007   20.0621 cc         1 S56     -0.032000
     12 N6          5.1103    0.8574   20.3442 na         1 S56      0.033700
     13 C10         4.3239    1.3976   19.2853 cc         1 S56     -0.175600
     14 C11         4.8369    1.3145   17.9467 cc         1 S56      0.481200
     15 N3          5.9846    0.7308   17.6615 nd         1 S56     -0.654000
     16 C12         6.7080    0.1925   18.7360 cd         1 S56      0.525500
     17 H1          8.9301   -1.5703   22.4783 hn         1 S56      0.313500
     18 H3          9.7171    1.7220   23.3893 ha         1 S56      0.149500
     19 H4         11.9892    2.5751   23.8803 ha         1 S56      0.137000
     20 H5         13.9861    1.2360   23.2472 ha         1 S56      0.136000
     21 H6         13.7140   -0.9927   22.1938 ha         1 S56      0.137000
     22 H7         11.4510   -1.8766   21.6939 ha         1 S56      0.149500
     23 H2          6.6573   -1.1810   21.5914 hn         1 S56      0.323500
     24 N4          3.1783    1.9277   19.7932 nd         1 S56     -0.244600
     25 H11         4.2749    1.7759   17.1176 h4         1 S56      0.062100
     26 F1          7.8573   -0.3545   18.3776 f          1 S56     -0.218200
     27 C14         4.4223    1.0683   21.5320 cc         1 S56     -0.158100
     28 H14         4.7880    0.7835   22.5189 h4         1 S56      0.206000
     29 C13         3.2380    1.7301   21.1634 cd         1 S56     -0.004400
     30 H13         2.4359    2.0812   21.8207 h4         1 S56      0.189000
@<TRIPOS>BOND
    1    27    29 1
    2    24    29 1
    3    16    26 1
    4    15    16 1
    5    14    15 1
    6    13    14 1
    7    13    24 1
    8    12    13 1
    9    12    27 1
   10    11    12 1
   11    11    16 1
   12    10    11 1
   13     8     9 1
   14     7     8 1
   15     6     7 1
   16     5     6 1
   17     4     5 1
   18     4     9 1
   19     3     4 1
   20     2     3 1
   21     2    10 1
   22     1     2 1
   23    29    30 1
   24    27    28 1
   25    14    25 1
   26    10    23 1
   27     9    22 1
   28     8    21 1
   29     7    20 1
   30     6    19 1
   31     5    18 1
   32     3    17 1
@<TRIPOS>SUBSTRUCTURE
      1 S56               1 ****               0 ****  **** 
