@<TRIPOS>MOLECULE
S58
   30    32     1     0     1 
SMALL
USER_CHARGES
@<TRIPOS>ATOM
  1 O1      8.849000    0.866000   20.718000 o     1 S58    -0.5821 ****
  2 C1      8.356000   -0.094000   21.334000 c     1 S58     0.7541 ****
  3 N1      9.064000   -0.809000   22.297000 ns    1 S58    -0.4511 ****
  4 C2     10.357000   -0.328000   22.647000 ca    1 S58     0.0536 ****
  5 C3     10.448000    0.779000   23.498000 ca    1 S58    -0.1540 ****
  6 C4     11.703000    1.298000   23.794000 ca    1 S58    -0.1085 ****
  7 C5     12.846000    0.712000   23.260000 ca    1 S58    -0.1480 ****
  8 C6     12.740000   -0.411000   22.452000 ca    1 S58    -0.1085 ****
  9 C7     11.498000   -0.942000   22.131000 ca    1 S58    -0.1540 ****
 10 N2      7.022000   -0.485000   21.112000 ns    1 S58    -0.4501 ****
 11 C8      6.346000    0.100000   20.023000 ca    1 S58    -0.0277 ****
 12 C9      5.149000    0.816000   20.215000 ca    1 S58    -0.2039 ****
 13 C10     4.546000    1.432000   19.087000 ca    1 S58    -0.1755 ****
 14 C11     5.122000    1.293000   17.798000 ca    1 S58     0.4222 ****
 15 N3      6.235000    0.587000   17.637000 nb    1 S58    -0.6510 ****
 16 C12     6.836000    0.008000   18.728000 ca    1 S58     0.5955 ****
 17 H1      8.751000   -1.699000   22.675000 hn    1 S58     0.3085 ****
 18 H3      9.550000    1.242000   23.917000 ha    1 S58     0.1485 ****
 19 H4     11.781000    2.180000   24.438000 ha    1 S58     0.1350 ****
 20 H5     13.828000    1.155000   23.453000 ha    1 S58     0.1340 ****
 21 H6     13.643000   -0.875000   22.047000 ha    1 S58     0.1350 ****
 22 H7     11.417000   -1.811000   21.472000 ha    1 S58     0.1485 ****
 23 H2      6.483000   -1.024000   21.784000 hn    1 S58     0.3095 ****
 24 N4      3.391000    2.056000   19.549000 na    1 S58    -0.0041 ****
 25 H11     4.695000    1.790000   16.923000 h4    1 S58     0.0371 ****
 26 F1      7.865000   -0.601000   18.461000 f     1 S58    -0.2012 ****
 27 C14     4.304000    1.135000   21.326000 cc    1 S58     0.3318 ****
 28 N7      3.270000    1.894000   20.895000 nd    1 S58    -0.4861 ****
 29 HN4     2.829000    2.747000   19.063000 hn    1 S58     0.3347 ****
 30 H14     4.434000    0.847000   22.377000 h4    1 S58     0.0578 ****
@<TRIPOS>BOND
    1     1     2 1
    2     2     3 1
    3     2    10 1
    4     3     4 1
    5     3    17 1
    6     4     5 1
    7     4     9 1
    8     5     6 1
    9     5    18 1
   10     6     7 1
   11     6    19 1
   12     7     8 1
   13     7    20 1
   14     8     9 1
   15     8    21 1
   16     9    22 1
   17    10    11 1
   18    10    23 1
   19    11    12 1
   20    11    16 1
   21    12    13 1
   22    12    27 1
   23    13    14 1
   24    13    24 1
   25    14    15 1
   26    14    25 1
   27    15    16 1
   28    16    26 1
   29    24    28 1
   30    24    29 1
   31    27    28 1
   32    27    30 1
@<TRIPOS>SUBSTRUCTURE
      1  S58              1 ****               0 ****  **** 
