@<TRIPOS>MOLECULE
Cpptraj Generated mol2 file.
   42    43     1     0     0
SMALL
USER_CHARGES


@<TRIPOS>ATOM
      1 O1          9.1885    1.2236   20.9476 o          1 S63     -0.596100
      2 C1          8.6863    0.4663   21.7844 c          1 S63      0.668100
      3 C2          9.3472    0.0524   23.0835 c3         1 S63     -0.154400
      4 C3         10.8714    0.0180   22.9526 c3         1 S63     -0.065700
      5 C4         11.3041   -1.1192   22.0228 c3         1 S63     -0.076900
      6 C5         12.4996   -1.9018   22.5498 c3         1 S63     -0.074900
      7 C6         13.5630   -1.0032   23.1571 c3         1 S63     -0.077400
      8 C7         13.0065   -0.0555   24.2165 c3         1 S63     -0.074900
      9 C8         11.4912   -0.1508   24.3413 c3         1 S63     -0.076900
     10 N1          7.3788    0.0149   21.6051 ns         1 S63     -0.466100
     11 C9          6.5847    0.4670   20.5280 ca         1 S63     -0.028700
     12 C10         5.3443    1.0588   20.7829 ca         1 S63     -0.171000
     13 C11         4.5584    1.4963   19.7126 ca         1 S63      0.042300
     14 C12         5.0544    1.2941   18.4011 ca         1 S63      0.360200
     15 N2          6.2439    0.7379   18.1161 nb         1 S63     -0.642000
     16 C13         6.9917    0.3406   19.1862 ca         1 S63      0.514500
     17 H22         8.9737   -0.9311   23.4550 hc         1 S63      0.081200
     18 H23         9.0272    0.7890   23.8585 hc         1 S63      0.081200
     19 H3         11.2239    0.9955   22.5287 hc         1 S63      0.055700
     20 H42        10.4736   -1.8315   21.8211 hc         1 S63      0.043450
     21 H43        11.5171   -0.7005   21.0218 hc         1 S63      0.043450
     22 H52        12.9490   -2.4889   21.7233 hc         1 S63      0.041950
     23 H53        12.1708   -2.6617   23.2897 hc         1 S63      0.041950
     24 H62        14.3658   -1.6348   23.5934 hc         1 S63      0.041200
     25 H63        14.0712   -0.4314   22.3578 hc         1 S63      0.041200
     26 H72        13.4848   -0.2580   25.1931 hc         1 S63      0.041950
     27 H73        13.2980    0.9892   23.9783 hc         1 S63      0.041950
     28 H82        11.1131    0.6249   25.0391 hc         1 S63      0.043450
     29 H83        11.1838   -1.1125   24.7997 hc         1 S63      0.043450
     30 H1          6.9113   -0.5804   22.2961 hn         1 S63      0.333500
     31 H10         5.0272    1.1691   21.8308 ha         1 S63      0.186000
     32 N3          3.2404    2.0052   19.8815 nh         1 S63     -0.634000
     33 H12         4.4865    1.6114   17.5137 h4         1 S63      0.034100
     34 F1          8.1706   -0.1809   18.8676 f          1 S63     -0.236200
     35 C14         2.8001    2.2335   21.2807 c3         1 S63      0.170100
     36 C15         2.9302    3.1871   19.0414 c3         1 S63      0.170100
     37 H141        1.7580    2.6027   21.2757 h1         1 S63      0.041867
     38 H142        2.8061    1.2842   21.8394 h1         1 S63      0.041867
     39 H143        3.3980    2.9712   21.8457 h1         1 S63      0.041867
     40 H151        3.4081    3.1573   18.0497 h1         1 S63      0.041867
     41 H152        1.8409    3.2276   18.8672 h1         1 S63      0.041867
     42 H153        3.2260    4.1506   19.4888 h1         1 S63      0.041867
@<TRIPOS>BOND
    1    32    35 1
    2    32    36 1
    3    16    34 1
    4    15    16 1
    5    14    15 1
    6    13    14 1
    7    13    32 1
    8    12    13 1
    9    11    12 1
   10    11    16 1
   11    10    11 1
   12     8     9 1
   13     7     8 1
   14     6     7 1
   15     5     6 1
   16     4     5 1
   17     4     9 1
   18     3     4 1
   19     2     3 1
   20     2    10 1
   21     1     2 1
   22    36    40 1
   23    36    41 1
   24    36    42 1
   25    35    37 1
   26    35    38 1
   27    35    39 1
   28    14    33 1
   29    12    31 1
   30    10    30 1
   31     9    28 1
   32     9    29 1
   33     8    26 1
   34     8    27 1
   35     7    24 1
   36     7    25 1
   37     6    22 1
   38     6    23 1
   39     5    20 1
   40     5    21 1
   41     4    19 1
   42     3    17 1
   43     3    18 1
@<TRIPOS>SUBSTRUCTURE
      1 S63               1 ****               0 ****  **** 
