@<TRIPOS>MOLECULE
Cpptraj Generated mol2 file.
   31    33     1     0     0
SMALL
USER_CHARGES


@<TRIPOS>ATOM
      1 O1          8.6161    1.1546   20.7211 o          1 S54     -0.585100
      2 C1          8.0821    0.2450   21.3793 c          1 S54      0.750100
      3 N1          8.7857   -0.4627   22.3487 ns         1 S54     -0.453100
      4 C2         10.1378   -0.0724   22.6042 ca         1 S54      0.056600
      5 C3         10.3782    1.1559   23.2259 ca         1 S54     -0.156000
      6 C4         11.6887    1.5486   23.4638 ca         1 S54     -0.108500
      7 C5         12.7449    0.7283   23.0838 ca         1 S54     -0.150000
      8 C6         12.4924   -0.4901   22.4673 ca         1 S54     -0.108500
      9 C7         11.1899   -0.9075   22.2237 ca         1 S54     -0.156000
     10 N2          6.7338   -0.0967   21.1720 ns         1 S54     -0.441100
     11 C8          6.0955    0.4575   20.0475 ca         1 S54     -0.058700
     12 C9          4.9374    1.2457   20.1461 ca         1 S54     -0.077800
     13 C10         4.3836    1.7817   18.9480 ca         1 S54     -0.178500
     14 C11         4.9779    1.5268   17.6953 ca         1 S54      0.422200
     15 N3          6.0695    0.7690   17.5871 nb         1 S54     -0.667000
     16 C12         6.6083    0.2615   18.7569 ca         1 S54      0.603500
     17 H1          8.4500   -1.3434   22.7385 hn         1 S54      0.306500
     18 H3          9.5470    1.8064   23.5195 ha         1 S54      0.148500
     19 H4         11.8840    2.5142   23.9425 ha         1 S54      0.133000
     20 H5         13.7776    1.0542   23.2450 ha         1 S54      0.133000
     21 H6         13.3248   -1.1252   22.1501 ha         1 S54      0.133000
     22 H7         10.9990   -1.8650   21.7271 ha         1 S54      0.148500
     23 H2          6.1480   -0.5511   21.8820 hn         1 S54      0.305500
     24 N4          3.2607    2.5245   19.2895 na         1 S54     -0.175400
     25 H11         4.5930    1.9770   16.7720 h4         1 S54      0.030100
     26 F1          7.7110   -0.4304   18.5616 f          1 S54     -0.206200
     27 C14         4.1241    1.6958   21.2233 cc         1 S54     -0.204200
     28 H14         4.2846    1.4766   22.2742 ha         1 S54      0.159000
     29 C13         3.1195    2.4833   20.6762 cd         1 S54     -0.082100
     30 H13         2.3020    3.0057   21.1919 h4         1 S54      0.172000
     31 HN4         2.7661    3.1321   18.6436 hn         1 S54      0.306700
@<TRIPOS>BOND
    1    27    29 1
    2    24    29 1
    3    16    26 1
    4    15    16 1
    5    14    15 1
    6    13    14 1
    7    13    24 1
    8    12    13 1
    9    12    27 1
   10    11    12 1
   11    11    16 1
   12    10    11 1
   13     8     9 1
   14     7     8 1
   15     6     7 1
   16     5     6 1
   17     4     5 1
   18     4     9 1
   19     3     4 1
   20     2     3 1
   21     2    10 1
   22     1     2 1
   23    29    30 1
   24    27    28 1
   25    24    31 1
   26    14    25 1
   27    10    23 1
   28     9    22 1
   29     8    21 1
   30     7    20 1
   31     6    19 1
   32     5    18 1
   33     3    17 1
@<TRIPOS>SUBSTRUCTURE
      1 S54               1 ****               0 ****  **** 
