@<TRIPOS>MOLECULE
S56
   30    32     1     0     1 
SMALL
USER_CHARGES
@<TRIPOS>ATOM
  1 O1      8.705000    1.088000   20.867000 o     1 S56    -0.5971 ****
  2 C1      8.345000    0.012000   21.372000 c     1 S56     0.7591 ****
  3 N1      9.118000   -0.713000   22.273000 ns    1 S56    -0.4541 ****
  4 C2     10.415000   -0.212000   22.592000 ca    1 S56     0.0516 ****
  5 C3     10.539000    0.963000   23.334000 ca    1 S56    -0.1525 ****
  6 C4     11.812000    1.439000   23.625000 ca    1 S56    -0.1085 ****
  7 C5     12.934000    0.754000   23.173000 ca    1 S56    -0.1440 ****
  8 C6     12.793000   -0.423000   22.446000 ca    1 S56    -0.1085 ****
  9 C7     11.534000   -0.919000   22.146000 ca    1 S56    -0.1525 ****
 10 N2      7.074000   -0.528000   21.070000 ns    1 S56    -0.4511 ****
 11 C8      6.348000    0.044000   20.009000 cc    1 S56    -0.0320 ****
 12 N6      5.188000    0.779000   20.311000 na    1 S56     0.0337 ****
 13 C10     4.420000    1.343000   19.256000 cc    1 S56    -0.1756 ****
 14 C11     4.916000    1.202000   17.913000 cc    1 S56     0.4812 ****
 15 N3      6.005000    0.515000   17.640000 nd    1 S56    -0.6540 ****
 16 C12     6.711000   -0.067000   18.688000 cd    1 S56     0.5255 ****
 17 H1      8.901000   -1.673000   22.535000 hn    1 S56     0.3135 ****
 18 H3      9.654000    1.509000   23.683000 ha    1 S56     0.1495 ****
 19 H4     11.925000    2.365000   24.200000 ha    1 S56     0.1370 ****
 20 H5     13.934000    1.157000   23.366000 ha    1 S56     0.1360 ****
 21 H6     13.679000   -0.954000   22.084000 ha    1 S56     0.1370 ****
 22 H7     11.417000   -1.841000   21.567000 ha    1 S56     0.1495 ****
 23 H2      6.694000   -1.368000   21.513000 hn    1 S56     0.3235 ****
 24 N4      3.293000    1.915000   19.759000 nd    1 S56    -0.2446 ****
 25 H11     4.379000    1.691000   17.093000 h4    1 S56     0.0621 ****
 26 F1      7.700000   -0.707000   18.352000 f     1 S56    -0.2182 ****
 27 C14     4.503000    1.014000   21.502000 cc    1 S56    -0.1581 ****
 28 H14     4.846000    0.696000   22.491000 h4    1 S56     0.2060 ****
 29 C13     3.347000    1.717000   21.134000 cd    1 S56    -0.0044 ****
 30 H13     2.553000    2.092000   21.792000 h4    1 S56     0.1890 ****
@<TRIPOS>BOND
    1     1     2 1
    2     2     3 1
    3     2    10 1
    4     3     4 1
    5     3    17 1
    6     4     5 1
    7     4     9 1
    8     5     6 1
    9     5    18 1
   10     6     7 1
   11     6    19 1
   12     7     8 1
   13     7    20 1
   14     8     9 1
   15     8    21 1
   16     9    22 1
   17    10    11 1
   18    10    23 1
   19    11    12 1
   20    11    16 1
   21    12    13 1
   22    12    27 1
   23    13    14 1
   24    13    24 1
   25    14    15 1
   26    14    25 1
   27    15    16 1
   28    16    26 1
   29    24    29 1
   30    27    28 1
   31    27    29 1
   32    29    30 1
@<TRIPOS>SUBSTRUCTURE
      1  S56              1 ****               0 ****  **** 
