@<TRIPOS>MOLECULE
S52
   31    33     1     0     1 
SMALL
USER_CHARGES
@<TRIPOS>ATOM
  1 O1      8.894000    1.006000   20.760000 o     1 S52    -0.5861 ****
  2 C1      8.406000    0.064000   21.406000 c     1 S52     0.7581 ****
  3 N1      9.133000   -0.687000   22.317000 ns    1 S52    -0.4501 ****
  4 C2     10.452000   -0.243000   22.637000 ca    1 S52     0.0506 ****
  5 C3     10.601000    0.896000   23.429000 ca    1 S52    -0.1525 ****
  6 C4     11.879000    1.365000   23.699000 ca    1 S52    -0.1085 ****
  7 C5     12.986000    0.699000   23.190000 ca    1 S52    -0.1460 ****
  8 C6     12.825000   -0.454000   22.431000 ca    1 S52    -0.1085 ****
  9 C7     11.556000   -0.938000   22.143000 ca    1 S52    -0.1525 ****
 10 N2      7.045000   -0.272000   21.254000 ns    1 S52    -0.4671 ****
 11 C8      6.344000    0.285000   20.166000 ca    1 S52    -0.0657 ****
 12 C9      5.201000    1.095000   20.392000 ca    1 S52    -0.2466 ****
 13 C10     4.435000    1.489000   19.283000 ca    1 S52     0.2853 ****
 14 C11     4.922000    1.173000   17.971000 ca    1 S52     0.3969 ****
 15 N3      6.038000    0.489000   17.770000 nb    1 S52    -0.6580 ****
 16 C12     6.736000    0.030000   18.861000 ca    1 S52     0.6285 ****
 17 H1      8.801000   -1.566000   22.710000 hn    1 S52     0.3085 ****
 18 H3      9.725000    1.422000   23.827000 ha    1 S52     0.1485 ****
 19 H4     12.002000    2.272000   24.300000 ha    1 S52     0.1355 ****
 20 H5     13.988000    1.103000   23.357000 ha    1 S52     0.1350 ****
 21 H6     13.702000   -0.975000   22.036000 ha    1 S52     0.1355 ****
 22 H7     11.426000   -1.836000   21.528000 ha    1 S52     0.1485 ****
 23 H2      6.513000   -0.782000   21.962000 hn    1 S52     0.3105 ****
 24 N4      3.226000    2.151000   19.430000 nb    1 S52    -0.6530 ****
 25 H11     4.384000    1.530000   17.082000 h4    1 S52     0.0551 ****
 26 F1      7.735000   -0.626000   18.590000 f     1 S52    -0.1952 ****
 27 C15     4.755000    1.550000   21.678000 ca    1 S52     0.4442 ****
 28 H15     5.328000    1.327000   22.600000 h4    1 S52     0.0291 ****
 29 N5      3.641000    2.247000   21.821000 nb    1 S52    -0.6720 ****
 30 C13     2.883000    2.491000   20.672000 ca    1 S52     0.6279 ****
 31 H13     1.909000    3.019000   20.821000 h5    1 S52     0.0641 ****
@<TRIPOS>BOND
    1     1     2 1
    2     2     3 1
    3     2    10 1
    4     3     4 1
    5     3    17 1
    6     4     5 1
    7     4     9 1
    8     5     6 1
    9     5    18 1
   10     6     7 1
   11     6    19 1
   12     7     8 1
   13     7    20 1
   14     8     9 1
   15     8    21 1
   16     9    22 1
   17    10    11 1
   18    10    23 1
   19    11    12 1
   20    11    16 1
   21    12    13 1
   22    12    27 1
   23    13    14 1
   24    13    24 1
   25    14    15 1
   26    14    25 1
   27    15    16 1
   28    16    26 1
   29    24    30 1
   30    27    28 1
   31    27    29 1
   32    29    30 1
   33    30    31 1
@<TRIPOS>SUBSTRUCTURE
      1  S52              1 ****               0 ****  **** 
