@<TRIPOS>MOLECULE
Cpptraj Generated mol2 file.
   38    40     1     0     0
SMALL
USER_CHARGES


@<TRIPOS>ATOM
      1 O1          9.2070    1.2703   20.9423 o          1 S66     -0.565100
      2 C1          8.6176    0.6324   21.8229 c          1 S66      0.659100
      3 C2          9.2317    0.2235   23.1426 c3         1 S66     -0.149400
      4 C3         10.7570    0.1098   23.0224 c3         1 S66     -0.059700
      5 C4         11.1380   -1.0019   22.0420 c3         1 S66     -0.074900
      6 C5         12.3332   -1.8256   22.5080 c3         1 S66     -0.074900
      7 C6         13.4196   -0.9740   23.1432 c3         1 S66     -0.077400
      8 C7         12.8909   -0.0933   24.2731 c3         1 S66     -0.074900
      9 C8         11.3712   -0.1492   24.3982 c3         1 S66     -0.074900
     10 N1          7.2711    0.3011   21.6301 ns         1 S66     -0.471100
     11 C9          6.6067    0.6225   20.4392 ca         1 S66     -0.034700
     12 C10         5.3631    1.2842   20.4503 ca         1 S66     -0.084800
     13 C11         4.7612    1.6204   19.1986 ca         1 S66     -0.173500
     14 C12         5.3769    1.2742   17.9918 ca         1 S66      0.410200
     15 N2          6.5409    0.6292   17.9635 nb         1 S66     -0.661000
     16 C13         7.1196    0.3208   19.1746 ca         1 S66      0.577500
     17 H22         8.8082   -0.7343   23.5219 hc         1 S66      0.071200
     18 H23         8.9446    0.9858   23.9029 hc         1 S66      0.071200
     19 H3         11.1603    1.0833   22.6419 hc         1 S66      0.068700
     20 H42        10.2885   -1.6929   21.8492 hc         1 S66      0.039700
     21 H43        11.3335   -0.5559   21.0481 hc         1 S66      0.039700
     22 H52        12.7576   -2.3802   21.6449 hc         1 S66      0.040450
     23 H53        12.0102   -2.6184   23.2144 hc         1 S66      0.040450
     24 H62        14.2369   -1.6330   23.5099 hc         1 S66      0.042200
     25 H63        13.9067   -0.3527   22.3660 hc         1 S66      0.042200
     26 H72        13.3689   -0.3903   25.2267 hc         1 S66      0.040450
     27 H73        13.2164    0.9589   24.1151 hc         1 S66      0.040450
     28 H82        11.0148    0.5986   25.1375 hc         1 S66      0.039700
     29 H83        11.0340   -1.1246   24.8056 hc         1 S66      0.039700
     30 H1          6.7029   -0.1297   22.3709 hn         1 S66      0.320500
     31 C15         4.4977    1.7524   21.4770 cc         1 S66     -0.199200
     32 N3          3.5616    2.2716   19.4684 na         1 S66     -0.176400
     33 H12         4.9442    1.5466   17.0182 h4         1 S66      0.029100
     34 F1          8.2861   -0.2950   19.0462 f          1 S66     -0.206200
     35 C14         3.4196    2.3634   20.8534 cd         1 S66     -0.089100
     36 H14         2.5516    2.8443   21.3122 h4         1 S66      0.171000
     37 H15         4.6691    1.6357   22.5467 ha         1 S66      0.157000
     38 HN3         3.0254    2.7736   18.7633 hn         1 S66      0.305700
@<TRIPOS>BOND
    1    32    35 1
    2    31    35 1
    3    16    34 1
    4    15    16 1
    5    14    15 1
    6    13    14 1
    7    13    32 1
    8    12    13 1
    9    12    31 1
   10    11    12 1
   11    11    16 1
   12    10    11 1
   13     8     9 1
   14     7     8 1
   15     6     7 1
   16     5     6 1
   17     4     5 1
   18     4     9 1
   19     3     4 1
   20     2     3 1
   21     2    10 1
   22     1     2 1
   23    35    36 1
   24    32    38 1
   25    31    37 1
   26    14    33 1
   27    10    30 1
   28     9    28 1
   29     9    29 1
   30     8    26 1
   31     8    27 1
   32     7    24 1
   33     7    25 1
   34     6    22 1
   35     6    23 1
   36     5    20 1
   37     5    21 1
   38     4    19 1
   39     3    17 1
   40     3    18 1
@<TRIPOS>SUBSTRUCTURE
      1 S66               1 ****               0 ****  **** 
