@<TRIPOS>MOLECULE
Cpptraj Generated mol2 file.
   29    30     1     0     0
SMALL
USER_CHARGES


@<TRIPOS>ATOM
      1 O1          8.7128    1.1318   20.7275 o          1 S49     -0.611100
      2 C1          8.1731    0.2466   21.4111 c          1 S49      0.773100
      3 N1          8.8693   -0.4721   22.3761 ns         1 S49     -0.459100
      4 C2         10.2207   -0.0893   22.6361 ca         1 S49      0.057600
      5 C3         10.4579    1.1184   23.2950 ca         1 S49     -0.155000
      6 C4         11.7681    1.5152   23.5300 ca         1 S49     -0.108500
      7 C5         12.8239    0.7160   23.1107 ca         1 S49     -0.147000
      8 C6         12.5756   -0.4883   22.4640 ca         1 S49     -0.108500
      9 C7         11.2733   -0.9069   22.2213 ca         1 S49     -0.155000
     10 N2          6.8066   -0.0630   21.2398 ns         1 S49     -0.457100
     11 C8          6.1565    0.4873   20.1142 ca         1 S49     -0.024700
     12 C9          5.0032    1.2553   20.2434 ca         1 S49     -0.162000
     13 C10         4.3880    1.7514   19.0789 ca         1 S49      0.047300
     14 C11         4.9614    1.4342   17.8217 ca         1 S49      0.334200
     15 N3          6.0765    0.7012   17.6722 nb         1 S49     -0.630000
     16 C12         6.6588    0.2466   18.8143 ca         1 S49      0.508500
     17 H1          8.5099   -1.3280   22.7966 hn         1 S49      0.311500
     18 H3          9.6249    1.7526   23.6205 ha         1 S49      0.148500
     19 H4         11.9586    2.4691   24.0333 ha         1 S49      0.134500
     20 H5         13.8533    1.0501   23.2636 ha         1 S49      0.135000
     21 H6         13.4114   -1.1087   22.1225 ha         1 S49      0.134500
     22 H7         11.0824   -1.8520   21.6995 ha         1 S49      0.148500
     23 H2          6.2179   -0.4115   22.0041 hn         1 S49      0.321500
     24 H9          4.5948    1.4846   21.2358 ha         1 S49      0.181000
     25 N4          3.2044    2.4558   19.1582 nv         1 S49     -0.814200
     26 H11         4.5443    1.8210   16.8849 h4         1 S49      0.031100
     27 F1          7.7751   -0.4420   18.6233 f          1 S49     -0.236200
     28 H41         2.9931    2.9302   20.0282 hn         1 S49      0.400800
     29 H42         2.9035    2.9527   18.3298 hn         1 S49      0.400800
@<TRIPOS>BOND
    1    16    27 1
    2    15    16 1
    3    14    15 1
    4    13    14 1
    5    13    25 1
    6    12    13 1
    7    11    12 1
    8    11    16 1
    9    10    11 1
   10     8     9 1
   11     7     8 1
   12     6     7 1
   13     5     6 1
   14     4     5 1
   15     4     9 1
   16     3     4 1
   17     2     3 1
   18     2    10 1
   19     1     2 1
   20    25    28 1
   21    25    29 1
   22    14    26 1
   23    12    24 1
   24    10    23 1
   25     9    22 1
   26     8    21 1
   27     7    20 1
   28     6    19 1
   29     5    18 1
   30     3    17 1
@<TRIPOS>SUBSTRUCTURE
      1 S49               1 ****               0 ****  **** 
