@<TRIPOS>MOLECULE
Cpptraj Generated mol2 file.
   35    36     1     0     0
SMALL
USER_CHARGES


@<TRIPOS>ATOM
      1 O1          8.7041    1.1494   20.7340 o          1 S51     -0.612100
      2 C1          8.2650    0.1358   21.3057 c          1 S51      0.772100
      3 N1          9.0621   -0.6482   22.1460 ns         1 S51     -0.460100
      4 C2         10.3670   -0.1645   22.4451 ca         1 S51      0.058600
      5 C3         10.5197    1.0881   23.0490 ca         1 S51     -0.155000
      6 C4         11.7990    1.5379   23.3534 ca         1 S51     -0.109000
      7 C5         12.9047    0.7538   23.0494 ca         1 S51     -0.148000
      8 C6         12.7418   -0.4797   22.4313 ca         1 S51     -0.109000
      9 C7         11.4751   -0.9549   22.1260 ca         1 S51     -0.155000
     10 N2          6.9269   -0.2489   21.1605 ns         1 S51     -0.456100
     11 C8          6.1462    0.4070   20.1794 ca         1 S51     -0.029700
     12 C9          4.9829    1.0969   20.5190 ca         1 S51     -0.159000
     13 C10         4.2178    1.6936   19.5018 ca         1 S51      0.064300
     14 C11         4.6699    1.5565   18.1664 ca         1 S51      0.338200
     15 N3          5.7824    0.8975   17.8070 nb         1 S51     -0.634000
     16 C12         6.5084    0.3454   18.8130 ca         1 S51      0.508500
     17 H1          8.8368   -1.6191   22.3650 hn         1 S51      0.311500
     18 H3          9.6543    1.7197   23.2752 ha         1 S51      0.148500
     19 H4         11.9279    2.5178   23.8277 ha         1 S51      0.134500
     20 H5         13.9093    1.1222   23.2660 ha         1 S51      0.134000
     21 H6         13.6161   -1.0811   22.1582 ha         1 S51      0.134500
     22 H7         11.3449   -1.9206   21.6240 ha         1 S51      0.148500
     23 H2          6.4408   -0.8445   21.8317 hn         1 S51      0.320500
     24 H9          4.6693    1.1624   21.5705 ha         1 S51      0.182000
     25 N4          2.9545    2.2626   19.8047 nh         1 S51     -0.646000
     26 H11         4.1230    2.0225   17.3258 h4         1 S51      0.032100
     27 F1          7.6110   -0.2768   18.4341 f          1 S51     -0.237200
     28 C13         2.7724    2.6925   21.2184 c3         1 S51      0.181100
     29 C14         2.4934    3.3295   18.8812 c3         1 S51      0.181100
     30 H131        1.7184    2.9774   21.3851 h1         1 S51      0.043367
     31 H132        3.0126    1.8683   21.9182 h1         1 S51      0.043367
     32 H133        3.4057    3.5528   21.5029 h1         1 S51      0.043367
     33 H141        1.3899    3.3913   18.9217 h1         1 S51      0.043367
     34 H142        2.7768    3.1429   17.8319 h1         1 S51      0.043367
     35 H143        2.8898    4.3306   19.1220 h1         1 S51      0.043367
@<TRIPOS>BOND
    1    25    28 1
    2    25    29 1
    3    16    27 1
    4    15    16 1
    5    14    15 1
    6    13    14 1
    7    13    25 1
    8    12    13 1
    9    11    12 1
   10    11    16 1
   11    10    11 1
   12     8     9 1
   13     7     8 1
   14     6     7 1
   15     5     6 1
   16     4     5 1
   17     4     9 1
   18     3     4 1
   19     2     3 1
   20     2    10 1
   21     1     2 1
   22    29    33 1
   23    29    34 1
   24    29    35 1
   25    28    30 1
   26    28    31 1
   27    28    32 1
   28    14    26 1
   29    12    24 1
   30    10    23 1
   31     9    22 1
   32     8    21 1
   33     7    20 1
   34     6    19 1
   35     5    18 1
   36     3    17 1
@<TRIPOS>SUBSTRUCTURE
      1 S51               1 ****               0 ****  **** 
