@<TRIPOS>MOLECULE
Cpptraj Generated mol2 file.
   37    39     1     0     0
SMALL
USER_CHARGES


@<TRIPOS>ATOM
      1 O1          9.2676    1.2626   20.9613 o          1 S69     -0.565100
      2 C1          8.6634    0.6825   21.8600 c          1 S69      0.658100
      3 C2          9.2743    0.2488   23.1741 c3         1 S69     -0.149400
      4 C3         10.7971    0.1316   23.0463 c3         1 S69     -0.059700
      5 C4         11.1701   -0.9630   22.0443 c3         1 S69     -0.075400
      6 C5         12.3532   -1.8143   22.4950 c3         1 S69     -0.074400
      7 C6         13.4508   -0.9890   23.1464 c3         1 S69     -0.077400
      8 C7         12.9324   -0.1087   24.2812 c3         1 S69     -0.074400
      9 C8         11.4145   -0.1614   24.4134 c3         1 S69     -0.075400
     10 N1          7.2954    0.4179   21.6984 ns         1 S69     -0.460100
     11 C9          6.6437    0.7096   20.4891 ca         1 S69     -0.016700
     12 C10         5.4099    1.3805   20.4470 ca         1 S69      0.066400
     13 C11         4.7962    1.6398   19.1837 ca         1 S69     -0.196500
     14 C12         5.4104    1.2227   17.9938 ca         1 S69      0.415200
     15 N2          6.5816    0.5861   18.0095 nb         1 S69     -0.657000
     16 C13         7.1615    0.3429   19.2391 ca         1 S69      0.581500
     17 H22         8.8395   -0.7125   23.5314 hc         1 S69      0.073200
     18 H23         8.9932    0.9986   23.9503 hc         1 S69      0.073200
     19 H3         11.2023    1.1131   22.6846 hc         1 S69      0.066700
     20 H42        10.3137   -1.6364   21.8265 hc         1 S69      0.040950
     21 H43        11.3771   -0.4974   21.0622 hc         1 S69      0.040950
     22 H52        12.7688   -2.3585   21.6219 hc         1 S69      0.040450
     23 H53        12.0147   -2.6142   23.1872 hc         1 S69      0.040450
     24 H62        14.2483   -1.6677   23.5194 hc         1 S69      0.041700
     25 H63        13.9591   -0.3709   22.3804 hc         1 S69      0.041700
     26 H72        13.4149   -0.4041   25.2343 hc         1 S69      0.040450
     27 H73        13.2571    0.9416   24.1210 hc         1 S69      0.040450
     28 H82        11.0644    0.5696   25.1711 hc         1 S69      0.040950
     29 H83        11.0755   -1.1438   24.8014 hc         1 S69      0.040950
     30 H1          6.7051    0.1208   22.4810 hn         1 S69      0.333500
     31 N7          4.6090    1.8903   21.4769 nc         1 S69     -0.577100
     32 N3          3.6016    2.3048   19.4571 na         1 S69     -0.271300
     33 H12         4.9846    1.4261   17.0044 h4         1 S69      0.033100
     34 F1          8.3267   -0.2809   19.1444 f          1 S69     -0.200200
     35 C14         3.5380    2.4518   20.8529 cd         1 S69      0.434700
     36 H14         2.6925    2.9446   21.3750 h5         1 S69      0.074800
     37 HN3         3.0442    2.7824   18.7573 hn         1 S69      0.313700
@<TRIPOS>BOND
    1    32    35 1
    2    31    35 1
    3    16    34 1
    4    15    16 1
    5    14    15 1
    6    13    14 1
    7    13    32 1
    8    12    13 1
    9    12    31 1
   10    11    12 1
   11    11    16 1
   12    10    11 1
   13     8     9 1
   14     7     8 1
   15     6     7 1
   16     5     6 1
   17     4     5 1
   18     4     9 1
   19     3     4 1
   20     2     3 1
   21     2    10 1
   22     1     2 1
   23    35    36 1
   24    32    37 1
   25    14    33 1
   26    10    30 1
   27     9    28 1
   28     9    29 1
   29     8    26 1
   30     8    27 1
   31     7    24 1
   32     7    25 1
   33     6    22 1
   34     6    23 1
   35     5    20 1
   36     5    21 1
   37     4    19 1
   38     3    17 1
   39     3    18 1
@<TRIPOS>SUBSTRUCTURE
      1 S69               1 ****               0 ****  **** 
