@<TRIPOS>MOLECULE
Cpptraj Generated mol2 file.
   37    39     1     0     0
SMALL
USER_CHARGES


@<TRIPOS>ATOM
      1 O1          9.2864    1.3366   20.9665 o          1 S68     -0.572100
      2 C1          8.7354    0.6946   21.8575 c          1 S68      0.662100
      3 C2          9.3639    0.3040   23.1758 c3         1 S68     -0.151400
      4 C3         10.8756    0.1152   23.0194 c3         1 S68     -0.063700
      5 C4         11.1786   -1.0455   22.0675 c3         1 S68     -0.076900
      6 C5         12.3882   -1.8693   22.5007 c3         1 S68     -0.074900
      7 C6         13.4974   -1.0183   23.0942 c3         1 S68     -0.077400
      8 C7         13.0153   -0.1474   24.2522 c3         1 S68     -0.074900
      9 C8         11.4976   -0.1523   24.3895 c3         1 S68     -0.076900
     10 N1          7.3872    0.3283   21.7006 ns         1 S68     -0.471100
     11 C9          6.6853    0.6283   20.5253 cc         1 S68     -0.023000
     12 N5          5.4297    1.2533   20.6291 na         1 S68      0.027700
     13 C11         4.6208    1.4507   19.4727 cc         1 S68     -0.171600
     14 C12         5.1768    1.1151   18.1937 cc         1 S68      0.474200
     15 N2          6.3786    0.5975   18.0566 nd         1 S68     -0.651000
     16 C13         7.1042    0.3469   19.2346 cd         1 S68      0.516500
     17 H22         8.9095   -0.6161   23.6035 hc         1 S68      0.078200
     18 H23         9.1345    1.1141   23.9065 hc         1 S68      0.078200
     19 H3         11.3246    1.0566   22.6049 hc         1 S68      0.066700
     20 H42        10.3080   -1.7291   21.9535 hc         1 S68      0.040950
     21 H43        11.3208   -0.6470   21.0452 hc         1 S68      0.040950
     22 H52        12.7820   -2.4309   21.6279 hc         1 S68      0.043700
     23 H53        12.0831   -2.6546   23.2241 hc         1 S68      0.043700
     24 H62        14.3241   -1.6776   23.4323 hc         1 S68      0.043700
     25 H63        13.9516   -0.3915   22.3036 hc         1 S68      0.043700
     26 H72        13.4883   -0.4783   25.1988 hc         1 S68      0.043700
     27 H73        13.3719    0.8949   24.1097 hc         1 S68      0.043700
     28 H82        11.1710    0.6090   25.1295 hc         1 S68      0.040950
     29 H83        11.1356   -1.1149   24.8094 hc         1 S68      0.040950
     30 H1          6.8787   -0.1850   22.4284 hn         1 S68      0.336500
     31 C15         4.6977    1.6761   21.7328 cc         1 S68     -0.166100
     32 N3          3.4148    1.9667   19.8376 nd         1 S68     -0.246600
     33 H12         4.5958    1.3019   17.2821 h4         1 S68      0.061100
     34 F1          8.2807   -0.2127   19.0149 f          1 S68     -0.220200
     35 C14         3.4627    2.1017   21.2184 cd         1 S68     -0.003400
     36 H14         2.6097    2.5014   21.7795 h4         1 S68      0.189000
     37 H15         5.0532    1.6457   22.7681 h4         1 S68      0.205000
@<TRIPOS>BOND
    1    32    35 1
    2    31    35 1
    3    16    34 1
    4    15    16 1
    5    14    15 1
    6    13    14 1
    7    13    32 1
    8    12    13 1
    9    12    31 1
   10    11    12 1
   11    11    16 1
   12    10    11 1
   13     8     9 1
   14     7     8 1
   15     6     7 1
   16     5     6 1
   17     4     5 1
   18     4     9 1
   19     3     4 1
   20     2     3 1
   21     2    10 1
   22     1     2 1
   23    35    36 1
   24    31    37 1
   25    14    33 1
   26    10    30 1
   27     9    28 1
   28     9    29 1
   29     8    26 1
   30     8    27 1
   31     7    24 1
   32     7    25 1
   33     6    22 1
   34     6    23 1
   35     5    20 1
   36     5    21 1
   37     4    19 1
   38     3    17 1
   39     3    18 1
@<TRIPOS>SUBSTRUCTURE
      1 S68               1 ****               0 ****  **** 
