@<TRIPOS>MOLECULE
Cpptraj Generated mol2 file.
   36    37     1     0     0
SMALL
USER_CHARGES


@<TRIPOS>ATOM
      1 O1          9.2329    1.2652   20.9599 o          1 S61     -0.590100
      2 C1          8.6522    0.6321   21.8433 c          1 S61      0.670100
      3 C2          9.2751    0.2211   23.1593 c3         1 S61     -0.152400
      4 C3         10.7983    0.1088   23.0311 c3         1 S61     -0.061700
      5 C4         11.1701   -1.0051   22.0495 c3         1 S61     -0.075900
      6 C5         12.3631   -1.8362   22.5099 c3         1 S61     -0.074900
      7 C6         13.4546   -0.9891   23.1440 c3         1 S61     -0.077400
      8 C7         12.9332   -0.1118   24.2799 c3         1 S61     -0.074900
      9 C8         11.4144   -0.1581   24.4042 c3         1 S61     -0.075900
     10 N1          7.3015    0.3129   21.6771 ns         1 S61     -0.466100
     11 C9          6.6059    0.6488   20.4963 ca         1 S61     -0.014700
     12 C10         5.3845    1.3116   20.5549 ca         1 S61     -0.183000
     13 C11         4.7205    1.6234   19.3539 ca         1 S61      0.052300
     14 C12         5.3069    1.2177   18.1317 ca         1 S61      0.326200
     15 N2          6.4851    0.5781   18.0453 nb         1 S61     -0.628000
     16 C13         7.1142    0.3122   19.2191 ca         1 S61      0.501500
     17 H22         8.8498   -0.7371   23.5385 hc         1 S61      0.075200
     18 H23         8.9940    0.9820   23.9233 hc         1 S61      0.075200
     19 H3         11.2019    1.0837   22.6514 hc         1 S61      0.064700
     20 H42        10.3168   -1.6896   21.8517 hc         1 S61      0.040950
     21 H43        11.3658   -0.5572   21.0574 hc         1 S61      0.040950
     22 H52        12.7819   -2.3921   21.6457 hc         1 S61      0.042450
     23 H53        12.0343   -2.6274   23.2169 hc         1 S61      0.042450
     24 H62        14.2664   -1.6523   23.5132 hc         1 S61      0.042200
     25 H63        13.9442   -0.3679   22.3680 hc         1 S61      0.042200
     26 H72        13.4077   -0.4121   25.2364 hc         1 S61      0.042450
     27 H73        13.2618    0.9377   24.1232 hc         1 S61      0.042450
     28 H82        11.0645    0.5875   25.1478 hc         1 S61      0.040950
     29 H83        11.0721   -1.1320   24.8099 hc         1 S61      0.040950
     30 H1          6.7449   -0.0918   22.4367 hn         1 S61      0.331500
     31 H10         4.9473    1.5873   21.5265 ha         1 S61      0.183000
     32 N3          3.4853    2.2449   19.3714 nv         1 S61     -0.815200
     33 H12         4.8424    1.4342   17.1646 h4         1 S61      0.030100
     34 F1          8.2839   -0.2985   19.0865 f          1 S61     -0.237200
     35 H31         3.2401    2.7748   20.1991 hn         1 S61      0.400800
     36 H32         3.1656    2.6565   18.5052 hn         1 S61      0.400800
@<TRIPOS>BOND
    1    16    34 1
    2    15    16 1
    3    14    15 1
    4    13    14 1
    5    13    32 1
    6    12    13 1
    7    11    12 1
    8    11    16 1
    9    10    11 1
   10     8     9 1
   11     7     8 1
   12     6     7 1
   13     5     6 1
   14     4     5 1
   15     4     9 1
   16     3     4 1
   17     2     3 1
   18     2    10 1
   19     1     2 1
   20    32    35 1
   21    32    36 1
   22    14    33 1
   23    12    31 1
   24    10    30 1
   25     9    28 1
   26     9    29 1
   27     8    26 1
   28     8    27 1
   29     7    24 1
   30     7    25 1
   31     6    22 1
   32     6    23 1
   33     5    20 1
   34     5    21 1
   35     4    19 1
   36     3    17 1
   37     3    18 1
@<TRIPOS>SUBSTRUCTURE
      1 S61               1 ****               0 ****  **** 
