@<TRIPOS>MOLECULE
Cpptraj Generated mol2 file.
   31    33     1     0     0
SMALL
USER_CHARGES


@<TRIPOS>ATOM
      1 O1          8.8884    1.2050   20.7862 o          1 S52     -0.586100
      2 C1          8.3964    0.2700   21.4363 c          1 S52      0.758100
      3 N1          9.1287   -0.5172   22.3112 ns         1 S52     -0.450100
      4 C2         10.4782   -0.1322   22.5705 ca         1 S52      0.050600
      5 C3         10.7137    1.0825   23.2154 ca         1 S52     -0.152500
      6 C4         12.0237    1.4756   23.4526 ca         1 S52     -0.108500
      7 C5         13.0765    0.6625   23.0519 ca         1 S52     -0.146000
      8 C6         12.8284   -0.5492   22.4201 ca         1 S52     -0.108500
      9 C7         11.5270   -0.9652   22.1731 ca         1 S52     -0.152500
     10 N2          7.0179   -0.0061   21.3322 ns         1 S52     -0.467100
     11 C8          6.3059    0.5300   20.2494 ca         1 S52     -0.065700
     12 C9          5.1219    1.2816   20.4555 ca         1 S52     -0.246600
     13 C10         4.3225    1.6106   19.3490 ca         1 S52      0.285300
     14 C11         4.8029    1.2935   18.0327 ca         1 S52      0.396900
     15 N3          5.9602    0.6955   17.8126 nb         1 S52     -0.658000
     16 C12         6.6947    0.3184   18.9290 ca         1 S52      0.628500
     17 H1          8.7992   -1.4185   22.6567 hn         1 S52      0.308500
     18 H3          9.8826    1.7240   23.5281 ha         1 S52      0.148500
     19 H4         12.2182    2.4348   23.9417 ha         1 S52      0.135500
     20 H5         14.1044    0.9971   23.2029 ha         1 S52      0.135000
     21 H6         13.6631   -1.1794   22.0955 ha         1 S52      0.135500
     22 H7         11.3318   -1.9169   21.6662 ha         1 S52      0.148500
     23 H2          6.4929   -0.5424   22.0297 hn         1 S52      0.310500
     24 N4          3.0854    2.2148   19.4957 nb         1 S52     -0.653000
     25 H11         4.2226    1.5805   17.1431 h4         1 S52      0.055100
     26 F1          7.8374   -0.2796   18.6278 f          1 S52     -0.195200
     27 C15         4.6736    1.7472   21.7388 ca         1 S52      0.444200
     28 H15         5.2702    1.5782   22.6555 h4         1 S52      0.029100
     29 N5          3.5270    2.3943   21.8772 nb         1 S52     -0.672000
     30 C13         2.7431    2.5687   20.7332 ca         1 S52      0.627900
     31 H13         1.7432    3.0435   20.8859 h5         1 S52      0.064100
@<TRIPOS>BOND
    1    29    30 1
    2    27    29 1
    3    24    30 1
    4    16    26 1
    5    15    16 1
    6    14    15 1
    7    13    14 1
    8    13    24 1
    9    12    13 1
   10    12    27 1
   11    11    12 1
   12    11    16 1
   13    10    11 1
   14     8     9 1
   15     7     8 1
   16     6     7 1
   17     5     6 1
   18     4     5 1
   19     4     9 1
   20     3     4 1
   21     2     3 1
   22     2    10 1
   23     1     2 1
   24    30    31 1
   25    27    28 1
   26    14    25 1
   27    10    23 1
   28     9    22 1
   29     8    21 1
   30     7    20 1
   31     6    19 1
   32     5    18 1
   33     3    17 1
@<TRIPOS>SUBSTRUCTURE
      1 S52               1 ****               0 ****  **** 
