@<TRIPOS>MOLECULE
S61
   36    37     1     0     1 
SMALL
USER_CHARGES
@<TRIPOS>ATOM
  1 O1      9.317000    1.153000   20.998000 o     1 S61    -0.5901 ****
  2 C1      8.731000    0.450000   21.832000 c     1 S61     0.6701 ****
  3 C2      9.342000   -0.002000   23.140000 c3    1 S61    -0.1524 ****
  4 C3     10.871000    0.008000   23.054000 c3    1 S61    -0.0617 ****
  5 C4     11.351000   -1.023000   22.030000 c3    1 S61    -0.0759 ****
  6 C5     12.545000   -1.835000   22.517000 c3    1 S61    -0.0749 ****
  7 C6     13.581000   -0.980000   23.230000 c3    1 S61    -0.0774 ****
  8 C7     12.980000   -0.123000   24.343000 c3    1 S61    -0.0749 ****
  9 C8     11.467000   -0.267000   24.433000 c3    1 S61    -0.0759 ****
 10 N1      7.408000    0.074000   21.608000 ns    1 S61    -0.4661 ****
 11 C9      6.749000    0.423000   20.408000 ca    1 S61    -0.0147 ****
 12 C10     5.530000    1.088000   20.453000 ca    1 S61    -0.1830 ****
 13 C11     4.911000    1.432000   19.242000 ca    1 S61     0.0523 ****
 14 C12     5.550000    1.060000   18.037000 ca    1 S61     0.3262 ****
 15 N2      6.725000    0.409000   17.996000 nb    1 S61    -0.6280 ****
 16 C13     7.323000    0.100000   19.162000 ca    1 S61     0.5015 ****
 17 H22     8.978000   -1.011000   23.441000 hc    1 S61     0.0752 ****
 18 H23     8.981000    0.683000   23.942000 hc    1 S61     0.0752 ****
 19 H3     11.206000    1.029000   22.731000 hc    1 S61     0.0647 ****
 20 H42    10.543000   -1.727000   21.734000 hc    1 S61     0.0409 ****
 21 H43    11.590000   -0.505000   21.082000 hc    1 S61     0.0409 ****
 22 H52    13.025000   -2.349000   21.658000 hc    1 S61     0.0425 ****
 23 H53    12.209000   -2.657000   23.184000 hc    1 S61     0.0425 ****
 24 H62    14.378000   -1.637000   23.642000 hc    1 S61     0.0422 ****
 25 H63    14.107000   -0.336000   22.495000 hc    1 S61     0.0422 ****
 26 H72    13.455000   -0.380000   25.311000 hc    1 S61     0.0425 ****
 27 H73    13.242000    0.945000   24.180000 hc    1 S61     0.0425 ****
 28 H82    11.056000    0.432000   25.190000 hc    1 S61     0.0409 ****
 29 H83    11.174000   -1.272000   24.799000 hc    1 S61     0.0409 ****
 30 H1      6.849000   -0.372000   22.339000 hn    1 S61     0.3315 ****
 31 H10     5.058000    1.340000   21.415000 ha    1 S61     0.1830 ****
 32 N3      3.679000    2.067000   19.230000 nv    1 S61    -0.8152 ****
 33 H12     5.122000    1.310000   17.058000 h4    1 S61     0.0301 ****
 34 F1      8.395000   -0.487000   19.068000 f     1 S61    -0.2372 ****
 35 H31     3.433000    2.620000   20.038000 hn    1 S61     0.4008 ****
 36 H32     3.379000    2.467000   18.347000 hn    1 S61     0.4008 ****
@<TRIPOS>BOND
    1     1     2 1
    2     2     3 1
    3     2    10 1
    4     3     4 1
    5     3    17 1
    6     3    18 1
    7     4     5 1
    8     4     9 1
    9     4    19 1
   10     5     6 1
   11     5    20 1
   12     5    21 1
   13     6     7 1
   14     6    22 1
   15     6    23 1
   16     7     8 1
   17     7    24 1
   18     7    25 1
   19     8     9 1
   20     8    26 1
   21     8    27 1
   22     9    28 1
   23     9    29 1
   24    10    11 1
   25    10    30 1
   26    11    12 1
   27    11    16 1
   28    12    13 1
   29    12    31 1
   30    13    14 1
   31    13    32 1
   32    14    15 1
   33    14    33 1
   34    15    16 1
   35    16    34 1
   36    32    35 1
   37    32    36 1
@<TRIPOS>SUBSTRUCTURE
      1  S61              1 ****               0 ****  **** 
