@<TRIPOS>MOLECULE
S59
   31    33     1     0     1 
SMALL
USER_CHARGES
@<TRIPOS>ATOM
  1 O1      8.844000    0.916000   20.703000 o     1 S59    -0.5941 ****
  2 C1      8.378000   -0.030000   21.360000 c     1 S59     0.7551 ****
  3 N1      9.117000   -0.732000   22.301000 ns    1 S59    -0.4521 ****
  4 C2     10.424000   -0.254000   22.620000 ca    1 S59     0.0576 ****
  5 C3     10.545000    0.888000   23.414000 ca    1 S59    -0.1560 ****
  6 C4     11.812000    1.378000   23.699000 ca    1 S59    -0.1085 ****
  7 C5     12.938000    0.733000   23.202000 ca    1 S59    -0.1490 ****
  8 C6     12.803000   -0.420000   22.436000 ca    1 S59    -0.1085 ****
  9 C7     11.545000   -0.926000   22.132000 ca    1 S59    -0.1560 ****
 10 N2      7.040000   -0.457000   21.174000 ns    1 S59    -0.4371 ****
 11 C8      6.322000    0.124000   20.113000 ca    1 S59    -0.1400 ****
 12 C9      5.130000    0.867000   20.361000 ca    1 S59     0.3083 ****
 13 C10     4.413000    1.372000   19.259000 ca    1 S59     0.1540 ****
 14 C11     4.936000    1.158000   17.946000 ca    1 S59     0.4089 ****
 15 N3      6.064000    0.493000   17.728000 nb    1 S59    -0.6680 ****
 16 C12     6.748000   -0.022000   18.802000 ca    1 S59     0.6395 ****
 17 H1      8.799000   -1.604000   22.721000 hn    1 S59     0.3105 ****
 18 H3      9.656000    1.396000   23.806000 ha    1 S59     0.1490 ****
 19 H4     11.913000    2.283000   24.306000 ha    1 S59     0.1340 ****
 20 H5     13.932000    1.150000   23.385000 ha    1 S59     0.1340 ****
 21 H6     13.693000   -0.927000   22.053000 ha    1 S59     0.1340 ****
 22 H7     11.439000   -1.826000   21.515000 ha    1 S59     0.1490 ****
 23 H2      6.500000   -0.816000   21.967000 hn    1 S59     0.3185 ****
 24 H11     4.419000    1.574000   17.069000 h4    1 S59     0.0531 ****
 25 F1      7.772000   -0.630000   18.512000 f     1 S59    -0.1922 ****
 26 N6      4.692000    1.080000   21.663000 nb    1 S59    -0.6450 ****
 27 C14     3.585000    1.780000   21.815000 ca    1 S59     0.3249 ****
 28 C15     2.821000    2.259000   20.678000 ca    1 S59     0.2869 ****
 29 H142    3.234000    1.973000   22.854000 h4    1 S59     0.0411 ****
 30 N5      3.215000    2.053000   19.435000 nb    1 S59    -0.5940 ****
 31 H152    1.862000    2.798000   20.822000 h4    1 S59     0.0431 ****
@<TRIPOS>BOND
    1     1     2 1
    2     2     3 1
    3     2    10 1
    4     3     4 1
    5     3    17 1
    6     4     5 1
    7     4     9 1
    8     5     6 1
    9     5    18 1
   10     6     7 1
   11     6    19 1
   12     7     8 1
   13     7    20 1
   14     8     9 1
   15     8    21 1
   16     9    22 1
   17    10    11 1
   18    10    23 1
   19    11    12 1
   20    11    16 1
   21    12    13 1
   22    12    26 1
   23    13    14 1
   24    13    30 1
   25    14    15 1
   26    14    24 1
   27    15    16 1
   28    16    25 1
   29    26    27 1
   30    27    28 1
   31    27    29 1
   32    28    30 1
   33    28    31 1
@<TRIPOS>SUBSTRUCTURE
      1  S59              1 ****               0 ****  **** 
