@<TRIPOS>MOLECULE
Cpptraj Generated mol2 file.
   30    32     1     0     0
SMALL
USER_CHARGES


@<TRIPOS>ATOM
      1 O1          8.7255    1.1231   20.7194 o          1 S58     -0.582100
      2 C1          8.2629    0.1305   21.3107 c          1 S58      0.754100
      3 N1          9.0033   -0.6086   22.2289 ns         1 S58     -0.451100
      4 C2         10.3247   -0.1603   22.5306 ca         1 S58      0.053600
      5 C3         10.4859    1.0579   23.1939 ca         1 S58     -0.154000
      6 C4         11.7682    1.5071   23.4799 ca         1 S58     -0.108500
      7 C5         12.8706    0.7496   23.1046 ca         1 S58     -0.148000
      8 C6         12.6980   -0.4669   22.4548 ca         1 S58     -0.108500
      9 C7         11.4256   -0.9375   22.1629 ca         1 S58     -0.154000
     10 N2          6.9286   -0.2645   21.1053 ns         1 S58     -0.450100
     11 C8          6.2341    0.3084   20.0264 ca         1 S58     -0.027700
     12 C9          5.0137    0.9840   20.1928 ca         1 S58     -0.203900
     13 C10         4.3965    1.5742   19.0597 ca         1 S58     -0.175500
     14 C11         4.9670    1.4539   17.7701 ca         1 S58      0.422200
     15 N3          6.1060    0.7946   17.5921 nb         1 S58     -0.651000
     16 C12         6.7218    0.2520   18.7153 ca         1 S58      0.595500
     17 H1          8.7380   -1.5538   22.5090 hn         1 S58      0.308500
     18 H3          9.6161    1.6595   23.4823 ha         1 S58      0.148500
     19 H4         11.9017    2.4664   23.9899 ha         1 S58      0.135000
     20 H5         13.8801    1.1276   23.2920 ha         1 S58      0.134000
     21 H6         13.5699   -1.0520   22.1493 ha         1 S58      0.135000
     22 H7         11.2922   -1.8909   21.6389 ha         1 S58      0.148500
     23 H2          6.4184   -0.8733   21.7406 hn         1 S58      0.309500
     24 N4          3.2251    2.1710   19.5222 na         1 S58     -0.004100
     25 H11         4.5206    1.9234   16.8879 h4         1 S58      0.037100
     26 F1          7.8759   -0.3331   18.4397 f          1 S58     -0.201200
     27 C14         4.1547    1.2818   21.3045 cc         1 S58      0.331800
     28 N7          3.1025    2.0076   20.8609 nd         1 S58     -0.486100
     29 HN4         2.6272    2.8259   19.0089 hn         1 S58      0.334700
     30 H14         4.2917    1.0082   22.3534 h4         1 S58      0.057800
@<TRIPOS>BOND
    1    27    28 1
    2    24    28 1
    3    16    26 1
    4    15    16 1
    5    14    15 1
    6    13    14 1
    7    13    24 1
    8    12    13 1
    9    12    27 1
   10    11    12 1
   11    11    16 1
   12    10    11 1
   13     8     9 1
   14     7     8 1
   15     6     7 1
   16     5     6 1
   17     4     5 1
   18     4     9 1
   19     3     4 1
   20     2     3 1
   21     2    10 1
   22     1     2 1
   23    27    30 1
   24    24    29 1
   25    14    25 1
   26    10    23 1
   27     9    22 1
   28     8    21 1
   29     7    20 1
   30     6    19 1
   31     5    18 1
   32     3    17 1
@<TRIPOS>SUBSTRUCTURE
      1 S58               1 ****               0 ****  **** 
