@<TRIPOS>MOLECULE
Cpptraj Generated mol2 file.
   31    33     1     0     0
SMALL
USER_CHARGES


@<TRIPOS>ATOM
      1 O1          8.7991    1.1500   20.7385 o          1 S59     -0.594100
      2 C1          8.3627    0.1826   21.3766 c          1 S59      0.755100
      3 N1          9.1254   -0.5556   22.2589 ns         1 S59     -0.452100
      4 C2         10.4582   -0.1288   22.5378 ca         1 S59      0.057600
      5 C3         10.6439    1.0979   23.1784 ca         1 S59     -0.156000
      6 C4         11.9398    1.5235   23.4413 ca         1 S59     -0.108500
      7 C5         13.0247    0.7393   23.0704 ca         1 S59     -0.149000
      8 C6         12.8165   -0.4799   22.4411 ca         1 S59     -0.108500
      9 C7         11.5355   -0.9353   22.1663 ca         1 S59     -0.156000
     10 N2          7.0152   -0.2298   21.2258 ns         1 S59     -0.437100
     11 C8          6.2693    0.3359   20.1813 ca         1 S59     -0.140000
     12 C9          5.0431    1.0237   20.3991 ca         1 S59      0.308300
     13 C10         4.2960    1.4908   19.3014 ca         1 S59      0.154000
     14 C11         4.8216    1.2935   17.9878 ca         1 S59      0.408900
     15 N3          5.9823    0.6989   17.7496 nb         1 S59     -0.668000
     16 C12         6.6914    0.2500   18.8571 ca         1 S59      0.639500
     17 H1          8.8172   -1.4706   22.6049 hn         1 S59      0.310500
     18 H3          9.7834    1.7040   23.4814 ha         1 S59      0.149000
     19 H4         12.0877    2.4830   23.9370 ha         1 S59      0.134000
     20 H5         14.0372    1.1177   23.2165 ha         1 S59      0.134000
     21 H6         13.6775   -1.0863   22.1463 ha         1 S59      0.134000
     22 H7         11.3831   -1.9040   21.6695 ha         1 S59      0.149000
     23 H2          6.4827   -0.6216   22.0039 hn         1 S59      0.318500
     24 H11         4.2740    1.6515   17.1062 h4         1 S59      0.053100
     25 F1          7.8672   -0.2644   18.5351 f          1 S59     -0.192200
     26 N6          4.6073    1.2310   21.7029 nb         1 S59     -0.645000
     27 C14         3.4740    1.8794   21.8573 ca         1 S59      0.324900
     28 C15         2.6828    2.3128   20.7268 ca         1 S59      0.286900
     29 H142        3.1179    2.0650   22.8939 h4         1 S59      0.041100
     30 N5          3.0752    2.1190   19.4816 nb         1 S59     -0.594000
     31 H152        1.7039    2.8152   20.8613 h4         1 S59      0.043100
@<TRIPOS>BOND
    1    28    30 1
    2    27    28 1
    3    26    27 1
    4    16    25 1
    5    15    16 1
    6    14    15 1
    7    13    14 1
    8    13    30 1
    9    12    13 1
   10    12    26 1
   11    11    12 1
   12    11    16 1
   13    10    11 1
   14     8     9 1
   15     7     8 1
   16     6     7 1
   17     5     6 1
   18     4     5 1
   19     4     9 1
   20     3     4 1
   21     2     3 1
   22     2    10 1
   23     1     2 1
   24    28    31 1
   25    27    29 1
   26    14    24 1
   27    10    23 1
   28     9    22 1
   29     8    21 1
   30     7    20 1
   31     6    19 1
   32     5    18 1
   33     3    17 1
@<TRIPOS>SUBSTRUCTURE
      1 S59               1 ****               0 ****  **** 
