@<TRIPOS>MOLECULE
Cpptraj Generated mol2 file.
   32    33     1     0     0
SMALL
USER_CHARGES


@<TRIPOS>ATOM
      1 O1          8.7057    1.1829   20.7432 o          1 S50     -0.587100
      2 C1          8.1723    0.2752   21.4027 c          1 S50      0.754100
      3 N1          8.8749   -0.4547   22.3580 ns         1 S50     -0.452100
      4 C2         10.2282   -0.0785   22.6115 ca         1 S50      0.054600
      5 C3         10.4781    1.1444   23.2369 ca         1 S50     -0.154500
      6 C4         11.7925    1.5293   23.4721 ca         1 S50     -0.108500
      7 C5         12.8408    0.7029   23.0840 ca         1 S50     -0.149000
      8 C6         12.5796   -0.5144   22.4637 ca         1 S50     -0.108500
      9 C7         11.2730   -0.9210   22.2250 ca         1 S50     -0.154500
     10 N2          6.8129   -0.0480   21.2180 ns         1 S50     -0.457100
     11 C8          6.1629    0.5046   20.0941 ca         1 S50     -0.058700
     12 C9          4.9996    1.2614   20.2265 ca         1 S50     -0.170000
     13 C10         4.3823    1.7642   19.0712 ca         1 S50      0.029300
     14 C11         4.9766    1.4695   17.8095 ca         1 S50      0.367200
     15 N3          6.0920    0.7493   17.6570 nb         1 S50     -0.651000
     16 C12         6.6746    0.2803   18.7985 ca         1 S50      0.593500
     17 H1          8.5308   -1.3345   22.7383 hn         1 S50      0.307500
     18 H3          9.6531    1.8004   23.5355 ha         1 S50      0.148000
     19 H4         11.9940    2.4924   23.9498 ha         1 S50      0.134000
     20 H5         13.8724    1.0252   23.2380 ha         1 S50      0.134000
     21 H6         13.4077   -1.1517   22.1406 ha         1 S50      0.134000
     22 H7         11.0723   -1.8761   21.7258 ha         1 S50      0.148000
     23 H2          6.2270   -0.4334   21.9656 hn         1 S50      0.306500
     24 H9          4.6026    1.4665   21.2289 ha         1 S50      0.143000
     25 N4          3.1790    2.4475   19.1060 nu         1 S50     -0.721600
     26 H11         4.5655    1.8702   16.8745 h4         1 S50      0.030100
     27 F1          7.7945   -0.3977   18.6041 f          1 S50     -0.207200
     28 C13         2.6935    3.0091   20.3715 c3         1 S50      0.171100
     29 HN4         2.9465    2.9748   18.2617 hn         1 S50      0.402800
     30 H131        1.8081    3.6418   20.1797 h1         1 S50      0.041033
     31 H132        2.3859    2.2052   21.0662 h1         1 S50      0.041033
     32 H133        3.4290    3.6489   20.8935 h1         1 S50      0.041033
@<TRIPOS>BOND
    1    25    28 1
    2    16    27 1
    3    15    16 1
    4    14    15 1
    5    13    14 1
    6    13    25 1
    7    12    13 1
    8    11    12 1
    9    11    16 1
   10    10    11 1
   11     8     9 1
   12     7     8 1
   13     6     7 1
   14     5     6 1
   15     4     5 1
   16     4     9 1
   17     3     4 1
   18     2     3 1
   19     2    10 1
   20     1     2 1
   21    28    30 1
   22    28    31 1
   23    28    32 1
   24    25    29 1
   25    14    26 1
   26    12    24 1
   27    10    23 1
   28     9    22 1
   29     8    21 1
   30     7    20 1
   31     6    19 1
   32     5    18 1
   33     3    17 1
@<TRIPOS>SUBSTRUCTURE
      1 S50               1 ****               0 ****  **** 
