@<TRIPOS>MOLECULE
Cpptraj Generated mol2 file.
   32    34     1     0     0
SMALL
USER_CHARGES


@<TRIPOS>ATOM
      1 O1          8.8558    1.1428   20.7847 o          1 S53     -0.587100
      2 C1          8.3999    0.1589   21.3877 c          1 S53      0.753100
      3 N1          9.1535   -0.5981   22.2792 ns         1 S53     -0.452100
      4 C2         10.4814   -0.1696   22.5603 ca         1 S53      0.051600
      5 C3         10.6614    1.0502   23.2139 ca         1 S53     -0.154000
      6 C4         11.9529    1.4943   23.4661 ca         1 S53     -0.108500
      7 C5         13.0438    0.7281   23.0748 ca         1 S53     -0.147000
      8 C6         12.8469   -0.4937   22.4449 ca         1 S53     -0.108500
      9 C7         11.5673   -0.9593   22.1807 ca         1 S53     -0.154000
     10 N2          7.0444   -0.1922   21.2466 ns         1 S53     -0.460100
     11 C8          6.3102    0.3723   20.1823 ca         1 S53     -0.094700
     12 C9          5.1201    1.1102   20.4422 ca         1 S53     -0.115300
     13 C10         4.3533    1.5187   19.3354 ca         1 S53      0.263300
     14 C11         4.8506    1.2832   18.0092 ca         1 S53      0.406900
     15 N3          6.0061    0.6856   17.7687 nb         1 S53     -0.672000
     16 C12         6.7223    0.2354   18.8712 ca         1 S53      0.635500
     17 H1          8.8751   -1.5358   22.5753 hn         1 S53      0.306500
     18 H3          9.8047    1.6682   23.5078 ha         1 S53      0.148000
     19 H4         12.1049    2.4630   23.9558 ha         1 S53      0.135000
     20 H5         14.0594    1.1063   23.2378 ha         1 S53      0.134000
     21 H6         13.7090   -1.0842   22.1280 ha         1 S53      0.135000
     22 H7         11.4189   -1.9096   21.6612 ha         1 S53      0.148000
     23 H2          6.5472   -0.8260   21.8833 hn         1 S53      0.307500
     24 N4          3.1244    2.1363   19.4684 nb         1 S53     -0.631000
     25 H11         4.2869    1.6114   17.1290 h4         1 S53      0.051100
     26 F1          7.8663   -0.3425   18.5563 f          1 S53     -0.199200
     27 C15         4.6678    1.4584   21.7412 ca         1 S53     -0.099000
     28 H15         5.2665    1.1964   22.6210 ha         1 S53      0.139000
     29 C14         3.4849    2.1332   21.8763 ca         1 S53     -0.219300
     30 H14         3.0974    2.4411   22.8553 ha         1 S53      0.151000
     31 C13         2.7228    2.4197   20.7060 ca         1 S53      0.404200
     32 H13         1.7259    2.9152   20.7763 h4         1 S53      0.031100
@<TRIPOS>BOND
    1    29    31 1
    2    27    29 1
    3    24    31 1
    4    16    26 1
    5    15    16 1
    6    14    15 1
    7    13    14 1
    8    13    24 1
    9    12    13 1
   10    12    27 1
   11    11    12 1
   12    11    16 1
   13    10    11 1
   14     8     9 1
   15     7     8 1
   16     6     7 1
   17     5     6 1
   18     4     5 1
   19     4     9 1
   20     3     4 1
   21     2     3 1
   22     2    10 1
   23     1     2 1
   24    31    32 1
   25    29    30 1
   26    27    28 1
   27    14    25 1
   28    10    23 1
   29     9    22 1
   30     8    21 1
   31     7    20 1
   32     6    19 1
   33     5    18 1
   34     3    17 1
@<TRIPOS>SUBSTRUCTURE
      1 S53               1 ****               0 ****  **** 
