@<TRIPOS>MOLECULE
Cpptraj Generated mol2 file.
   30    32     1     0     0
SMALL
USER_CHARGES


@<TRIPOS>ATOM
      1 O1          8.6583    1.1081   20.6790 o          1 S57     -0.590100
      2 C1          8.1515    0.1758   21.3343 c          1 S57      0.755100
      3 N1          8.8666   -0.5209   22.2981 ns         1 S57     -0.454100
      4 C2         10.2099   -0.1004   22.5604 ca         1 S57      0.059600
      5 C3         10.4142    1.1360   23.1788 ca         1 S57     -0.157000
      6 C4         11.7134    1.5509   23.4397 ca         1 S57     -0.108500
      7 C5         12.7839    0.7428   23.0757 ca         1 S57     -0.151000
      8 C6         12.5697   -0.4792   22.4484 ca         1 S57     -0.108500
      9 C7         11.2800   -0.9161   22.1866 ca         1 S57     -0.157000
     10 N2          6.8135   -0.2105   21.1286 ns         1 S57     -0.437100
     11 C8          6.1494    0.3741   20.0367 ca         1 S57     -0.038700
     12 C9          4.9577    1.1148   20.1640 ca         1 S57      0.075400
     13 C10         4.3724    1.7016   19.0022 ca         1 S57     -0.203500
     14 C11         4.9502    1.5145   17.7306 ca         1 S57      0.428200
     15 N3          6.0624    0.7925   17.5849 nb         1 S57     -0.664000
     16 C12         6.6349    0.2578   18.7264 ca         1 S57      0.607500
     17 H1          8.5559   -1.4266   22.6548 hn         1 S57      0.310500
     18 H3          9.5658    1.7711   23.4592 ha         1 S57      0.149500
     19 H4         11.8830    2.5207   23.9177 ha         1 S57      0.133000
     20 H5         13.8069    1.0889   23.2497 ha         1 S57      0.133000
     21 H6         13.4174   -1.0955   22.1353 ha         1 S57      0.133000
     22 H7         11.1050   -1.8773   21.6872 ha         1 S57      0.149500
     23 H2          6.2426   -0.6344   21.8581 hn         1 S57      0.319500
     24 N4          3.2400    2.3838   19.4419 na         1 S57     -0.270300
     25 H11         4.5371    1.9766   16.8286 h4         1 S57      0.034100
     26 F1          7.7548   -0.4042   18.4792 f          1 S57     -0.200200
     27 N8          4.1832    1.4191   21.2930 nc         1 S57     -0.580100
     28 C13         3.1684    2.1947   20.8249 cd         1 S57      0.440700
     29 H13         2.3613    2.6183   21.4571 h5         1 S57      0.075800
     30 HN4         2.6825    3.0129   18.8625 hn         1 S57      0.314700
@<TRIPOS>BOND
    1    27    28 1
    2    24    28 1
    3    16    26 1
    4    15    16 1
    5    14    15 1
    6    13    14 1
    7    13    24 1
    8    12    13 1
    9    12    27 1
   10    11    12 1
   11    11    16 1
   12    10    11 1
   13     8     9 1
   14     7     8 1
   15     6     7 1
   16     5     6 1
   17     4     5 1
   18     4     9 1
   19     3     4 1
   20     2     3 1
   21     2    10 1
   22     1     2 1
   23    28    29 1
   24    24    30 1
   25    14    25 1
   26    10    23 1
   27     9    22 1
   28     8    21 1
   29     7    20 1
   30     6    19 1
   31     5    18 1
   32     3    17 1
@<TRIPOS>SUBSTRUCTURE
      1 S57               1 ****               0 ****  **** 
