@<TRIPOS>MOLECULE
Cpptraj Generated mol2 file.
   27    28     1     0     0
SMALL
USER_CHARGES


@<TRIPOS>ATOM
      1 O1          8.6805    1.1124   20.7184 o          1 S48     -0.587100
      2 C1          8.1431    0.2291   21.4121 c          1 S48      0.753100
      3 N1          8.8397   -0.4556   22.3992 ns         1 S48     -0.452100
      4 C2         10.1893   -0.0648   22.6563 ca         1 S48      0.053600
      5 C3         10.4244    1.1409   23.3193 ca         1 S48     -0.154500
      6 C4         11.7338    1.5424   23.5495 ca         1 S48     -0.108500
      7 C5         12.7909    0.7481   23.1245 ca         1 S48     -0.148000
      8 C6         12.5455   -0.4544   22.4729 ca         1 S48     -0.108500
      9 C7         11.2445   -0.8765   22.2338 ca         1 S48     -0.154500
     10 N2          6.7916   -0.1122   21.2172 ns         1 S48     -0.454100
     11 C8          6.1371    0.4231   20.0899 ca         1 S48     -0.099700
     12 C9          4.9238    1.1147   20.1970 ca         1 S48     -0.104000
     13 C10         4.3209    1.5902   19.0444 ca         1 S48     -0.251300
     14 C11         4.9411    1.3852   17.8071 ca         1 S48      0.419200
     15 N3          6.1072    0.7245   17.6519 nb         1 S48     -0.680000
     16 C12         6.6850    0.2616   18.7978 ca         1 S48      0.639500
     17 H1          8.4795   -1.2946   22.8518 hn         1 S48      0.307500
     18 H3          9.5900    1.7696   23.6521 ha         1 S48      0.148500
     19 H4         11.9227    2.4944   24.0564 ha         1 S48      0.134000
     20 H5         13.8202    1.0853   23.2743 ha         1 S48      0.134000
     21 H6         13.3820   -1.0713   22.1289 ha         1 S48      0.134000
     22 H7         11.0542   -1.8205   21.7094 ha         1 S48      0.148500
     23 H2          6.2085   -0.5022   21.9624 hn         1 S48      0.305500
     24 H9          4.4603    1.2900   21.1773 ha         1 S48      0.142000
     25 H10         3.3861    2.1584   19.0968 ha         1 S48      0.151000
     26 H11         4.5186    1.7894   16.8793 h4         1 S48      0.032100
     27 F1          7.8372   -0.3574   18.6111 f          1 S48     -0.201200
@<TRIPOS>BOND
    1    16    27 1
    2    15    16 1
    3    14    15 1
    4    13    14 1
    5    12    13 1
    6    11    12 1
    7    11    16 1
    8    10    11 1
    9     8     9 1
   10     7     8 1
   11     6     7 1
   12     5     6 1
   13     4     5 1
   14     4     9 1
   15     3     4 1
   16     2     3 1
   17     2    10 1
   18     1     2 1
   19    14    26 1
   20    13    25 1
   21    12    24 1
   22    10    23 1
   23     9    22 1
   24     8    21 1
   25     7    20 1
   26     6    19 1
   27     5    18 1
   28     3    17 1
@<TRIPOS>SUBSTRUCTURE
      1 S48               1 ****               0 ****  **** 
