@<TRIPOS>MOLECULE
Cpptraj Generated mol2 file.
   38    40     1     0     0
SMALL
USER_CHARGES


@<TRIPOS>ATOM
      1 O1          9.3715    1.2195   20.9582 o          1 S64     -0.575100
      2 C1          8.8022    0.6071   21.8640 c          1 S64      0.656100
      3 C2          9.4288    0.1576   23.1637 c3         1 S64     -0.152400
      4 C3         10.9520    0.0858   23.0333 c3         1 S64     -0.063700
      5 C4         11.3554   -0.9895   22.0205 c3         1 S64     -0.076900
      6 C5         12.5154   -1.8553   22.4989 c3         1 S64     -0.074900
      7 C6         13.6084   -1.0427   23.1729 c3         1 S64     -0.077400
      8 C7         13.0776   -0.1384   24.2819 c3         1 S64     -0.074900
      9 C8         11.5615   -0.2025   24.4043 c3         1 S64     -0.076900
     10 N1          7.4264    0.3518   21.7503 ns         1 S64     -0.465100
     11 C9          6.6989    0.6807   20.5978 ca         1 S64     -0.041700
     12 C10         5.4420    1.3342   20.7130 ca         1 S64     -0.228600
     13 C11         4.6302    1.4640   19.5745 ca         1 S64      0.294300
     14 C12         5.1493    1.0385   18.3065 ca         1 S64      0.381900
     15 N2          6.3629    0.5349   18.1544 nb         1 S64     -0.648000
     16 C13         7.1171    0.3515   19.3061 ca         1 S64      0.546500
     17 H22         9.0255   -0.8287   23.4972 hc         1 S64      0.077200
     18 H23         9.1270    0.8800   23.9581 hc         1 S64      0.077200
     19 H3         11.3330    1.0806   22.6821 hc         1 S64      0.066700
     20 H42        10.5043   -1.6526   21.7535 hc         1 S64      0.041200
     21 H43        11.6029   -0.5025   21.0591 hc         1 S64      0.041200
     22 H52        12.9443   -2.4063   21.6374 hc         1 S64      0.042950
     23 H53        12.1485   -2.6484   23.1847 hc         1 S64      0.042950
     24 H62        14.3798   -1.7333   23.5750 hc         1 S64      0.043200
     25 H63        14.1457   -0.4421   22.4127 hc         1 S64      0.043200
     26 H72        13.5578   -0.4029   25.2453 hc         1 S64      0.042950
     27 H73        13.3915    0.9104   24.0936 hc         1 S64      0.042950
     28 H82        11.2001    0.5273   25.1579 hc         1 S64      0.041200
     29 H83        11.2270   -1.1861   24.7925 hc         1 S64      0.041200
     30 H1          6.9023   -0.1105   22.5042 hn         1 S64      0.322500
     31 C16         4.9273    1.8823   21.9413 ca         1 S64      0.481200
     32 N3          3.3456    1.9767   19.6450 nb         1 S64     -0.668000
     33 H12         4.5515    1.1412   17.3917 h4         1 S64      0.054100
     34 F1          8.3032   -0.1795   19.0767 f          1 S64     -0.225200
     35 C14         2.9559    2.4284   20.8370 ca         1 S64      0.637900
     36 N5          3.7297    2.4370   21.9998 nb         1 S64     -0.684000
     37 H14         1.9211    2.8351   20.9307 h5         1 S64      0.061100
     38 H16         5.5136    1.8578   22.8836 h4         1 S64      0.051100
@<TRIPOS>BOND
    1    35    36 1
    2    32    35 1
    3    31    36 1
    4    16    34 1
    5    15    16 1
    6    14    15 1
    7    13    14 1
    8    13    32 1
    9    12    13 1
   10    12    31 1
   11    11    12 1
   12    11    16 1
   13    10    11 1
   14     8     9 1
   15     7     8 1
   16     6     7 1
   17     5     6 1
   18     4     5 1
   19     4     9 1
   20     3     4 1
   21     2     3 1
   22     2    10 1
   23     1     2 1
   24    35    37 1
   25    31    38 1
   26    14    33 1
   27    10    30 1
   28     9    28 1
   29     9    29 1
   30     8    26 1
   31     8    27 1
   32     7    24 1
   33     7    25 1
   34     6    22 1
   35     6    23 1
   36     5    20 1
   37     5    21 1
   38     4    19 1
   39     3    17 1
   40     3    18 1
@<TRIPOS>SUBSTRUCTURE
      1 S64               1 ****               0 ****  **** 
