@<TRIPOS>MOLECULE
Cpptraj Generated mol2 file.
   34    35     1     0     0
SMALL
USER_CHARGES


@<TRIPOS>ATOM
      1 O1          9.1897    1.2570   20.9576 o          1 S60     -0.589100
      2 C1          8.6357    0.5995   21.8411 c          1 S60      0.670100
      3 C2          9.2771    0.2243   23.1617 c3         1 S60     -0.152400
      4 C3         10.7982    0.1029   23.0170 c3         1 S60     -0.061700
      5 C4         11.1557   -1.0359   22.0599 c3         1 S60     -0.075400
      6 C5         12.3620   -1.8465   22.5185 c3         1 S60     -0.074900
      7 C6         13.4555   -0.9794   23.1225 c3         1 S60     -0.077400
      8 C7         12.9439   -0.0847   24.2503 c3         1 S60     -0.074900
      9 C8         11.4274   -0.1335   24.3896 c3         1 S60     -0.075400
     10 N1          7.3050    0.2135   21.6743 ns         1 S60     -0.466100
     11 C9          6.5855    0.5232   20.5035 ca         1 S60     -0.057700
     12 C10         5.2929    1.0588   20.5772 ca         1 S60     -0.109000
     13 C11         4.6103    1.3340   19.4013 ca         1 S60     -0.230300
     14 C12         5.2252    1.0694   18.1735 ca         1 S60      0.386200
     15 N2          6.4648    0.5531   18.0481 nb         1 S60     -0.661000
     16 C13         7.1171    0.2900   19.2175 ca         1 S60      0.549500
     17 H22         8.8577   -0.7200   23.5798 hc         1 S60      0.075200
     18 H23         9.0090    1.0132   23.9016 hc         1 S60      0.075200
     19 H3         11.2009    1.0664   22.6078 hc         1 S60      0.065700
     20 H42        10.3025   -1.7293   21.9001 hc         1 S60      0.040950
     21 H43        11.3267   -0.6181   21.0506 hc         1 S60      0.040950
     22 H52        12.7750   -2.4140   21.6592 hc         1 S60      0.042700
     23 H53        12.0506   -2.6273   23.2435 hc         1 S60      0.042700
     24 H62        14.2766   -1.6320   23.4935 hc         1 S60      0.042200
     25 H63        13.9308   -0.3691   22.3276 hc         1 S60      0.042200
     26 H72        13.4281   -0.3692   25.2060 hc         1 S60      0.042700
     27 H73        13.2694    0.9624   24.0728 hc         1 S60      0.042700
     28 H82        11.0806    0.6260   25.1193 hc         1 S60      0.040950
     29 H83        11.0926   -1.1007   24.8161 hc         1 S60      0.040950
     30 H1          6.7806   -0.2458   22.4244 hn         1 S60      0.330500
     31 H10         4.8233    1.2620   21.5521 ha         1 S60      0.185000
     32 H11         3.6121    1.7856   19.4324 ha         1 S60      0.152000
     33 H12         4.7284    1.2865   17.2206 h4         1 S60      0.031100
     34 F1          8.3284   -0.2103   19.0574 f          1 S60     -0.233200
@<TRIPOS>BOND
    1    16    34 1
    2    15    16 1
    3    14    15 1
    4    13    14 1
    5    12    13 1
    6    11    12 1
    7    11    16 1
    8    10    11 1
    9     8     9 1
   10     7     8 1
   11     6     7 1
   12     5     6 1
   13     4     5 1
   14     4     9 1
   15     3     4 1
   16     2     3 1
   17     2    10 1
   18     1     2 1
   19    14    33 1
   20    13    32 1
   21    12    31 1
   22    10    30 1
   23     9    28 1
   24     9    29 1
   25     8    26 1
   26     8    27 1
   27     7    24 1
   28     7    25 1
   29     6    22 1
   30     6    23 1
   31     5    20 1
   32     5    21 1
   33     4    19 1
   34     3    17 1
   35     3    18 1
@<TRIPOS>SUBSTRUCTURE
      1 S60               1 ****               0 ****  **** 
