@<TRIPOS>MOLECULE
Cpptraj Generated mol2 file.
   37    39     1     0     0
SMALL
USER_CHARGES


@<TRIPOS>ATOM
      1 O1          9.2708    1.2699   20.9635 o          1 S70     -0.558100
      2 C1          8.6673    0.6700   21.8534 c          1 S70      0.661100
      3 C2          9.2702    0.2450   23.1717 c3         1 S70     -0.149400
      4 C3         10.7931    0.1150   23.0458 c3         1 S70     -0.060700
      5 C4         11.1566   -0.9879   22.0485 c3         1 S70     -0.074900
      6 C5         12.3536   -1.8241   22.4894 c3         1 S70     -0.075400
      7 C6         13.4455   -0.9854   23.1325 c3         1 S70     -0.077400
      8 C7         12.9275   -0.1295   24.2850 c3         1 S70     -0.075400
      9 C8         11.4082   -0.1795   24.4133 c3         1 S70     -0.074900
     10 N1          7.3003    0.3999   21.6808 ns         1 S70     -0.474100
     11 C9          6.6550    0.6782   20.4656 ca         1 S70     -0.008700
     12 C10         5.3979    1.2987   20.4223 ca         1 S70     -0.209900
     13 C11         4.8034    1.5790   19.1617 ca         1 S70     -0.170500
     14 C12         5.4534    1.2183   17.9617 ca         1 S70      0.411200
     15 N2          6.6366    0.6131   17.9854 nb         1 S70     -0.646000
     16 C13         7.2045    0.3525   19.2163 ca         1 S70      0.571500
     17 H22         8.8302   -0.7106   23.5391 hc         1 S70      0.073200
     18 H23         8.9960    1.0050   23.9391 hc         1 S70      0.073200
     19 H3         11.2084    1.0909   22.6808 hc         1 S70      0.068700
     20 H42        10.3012   -1.6703   21.8528 hc         1 S70      0.039700
     21 H43        11.3431   -0.5299   21.0585 hc         1 S70      0.039700
     22 H52        12.7688   -2.3629   21.6120 hc         1 S70      0.041700
     23 H53        12.0310   -2.6288   23.1838 hc         1 S70      0.041700
     24 H62        14.2600   -1.6527   23.4858 hc         1 S70      0.042700
     25 H63        13.9298   -0.3500   22.3665 hc         1 S70      0.042700
     26 H72        13.4061   -0.4482   25.2325 hc         1 S70      0.041700
     27 H73        13.2567    0.9225   24.1494 hc         1 S70      0.041700
     28 H82        11.0586    0.5507   25.1724 hc         1 S70      0.039700
     29 H83        11.0688   -1.1628   24.7993 hc         1 S70      0.039700
     30 H1          6.7188    0.0362   22.4434 hn         1 S70      0.323500
     31 C15         4.4562    1.7718   21.4000 cc         1 S70      0.335800
     32 N3          3.5696    2.1633   19.4265 na         1 S70     -0.006100
     33 H12         5.0385    1.4467   16.9764 h4         1 S70      0.036100
     34 F1          8.3826   -0.2422   19.1245 f          1 S70     -0.201200
     35 N6          3.3824    2.3005   20.7719 nd         1 S70     -0.491100
     36 HN3         2.9923    2.6764   18.7586 hn         1 S70      0.333700
     37 H15         4.5442    1.7204   22.4929 h4         1 S70      0.055800
@<TRIPOS>BOND
    1    32    35 1
    2    31    35 1
    3    16    34 1
    4    15    16 1
    5    14    15 1
    6    13    14 1
    7    13    32 1
    8    12    13 1
    9    12    31 1
   10    11    12 1
   11    11    16 1
   12    10    11 1
   13     8     9 1
   14     7     8 1
   15     6     7 1
   16     5     6 1
   17     4     5 1
   18     4     9 1
   19     3     4 1
   20     2     3 1
   21     2    10 1
   22     1     2 1
   23    32    36 1
   24    31    37 1
   25    14    33 1
   26    10    30 1
   27     9    28 1
   28     9    29 1
   29     8    26 1
   30     8    27 1
   31     7    24 1
   32     7    25 1
   33     6    22 1
   34     6    23 1
   35     5    20 1
   36     5    21 1
   37     4    19 1
   38     3    17 1
   39     3    18 1
@<TRIPOS>SUBSTRUCTURE
      1 S70               1 ****               0 ****  **** 
