@<TRIPOS>MOLECULE
Cpptraj Generated mol2 file.
   39    40     1     0     0
SMALL
USER_CHARGES


@<TRIPOS>ATOM
      1 O1          9.2429    1.2707   20.9646 o          1 S62     -0.591100
      2 C1          8.6751    0.6116   21.8386 c          1 S62      0.670100
      3 C2          9.3013    0.2045   23.1542 c3         1 S62     -0.152400
      4 C3         10.8233    0.0923   23.0263 c3         1 S62     -0.061700
      5 C4         11.1961   -1.0255   22.0499 c3         1 S62     -0.075900
      6 C5         12.3927   -1.8509   22.5115 c3         1 S62     -0.074900
      7 C6         13.4812   -0.9984   23.1424 c3         1 S62     -0.077400
      8 C7         12.9584   -0.1185   24.2754 c3         1 S62     -0.074900
      9 C8         11.4402   -0.1683   24.4009 c3         1 S62     -0.075900
     10 N1          7.3323    0.2603   21.6614 ns         1 S62     -0.465100
     11 C9          6.6318    0.6028   20.4902 ca         1 S62     -0.016700
     12 C10         5.3907    1.2347   20.5647 ca         1 S62     -0.180000
     13 C11         4.7170    1.5612   19.3766 ca         1 S62      0.056300
     14 C12         5.3289    1.2164   18.1418 ca         1 S62      0.327200
     15 N2          6.5181    0.6067   18.0382 nb         1 S62     -0.629000
     16 C13         7.1500    0.3093   19.2064 ca         1 S62      0.499500
     17 H22         8.8797   -0.7524   23.5400 hc         1 S62      0.074700
     18 H23         9.0203    0.9708   23.9133 hc         1 S62      0.074700
     19 H3         11.2281    1.0645   22.6419 hc         1 S62      0.064700
     20 H42        10.3444   -1.7135   21.8604 hc         1 S62      0.040950
     21 H43        11.3853   -0.5835   21.0543 hc         1 S62      0.040950
     22 H52        12.8124   -2.4067   21.6480 hc         1 S62      0.042450
     23 H53        12.0676   -2.6417   23.2209 hc         1 S62      0.042450
     24 H62        14.2952   -1.6587   23.5126 hc         1 S62      0.042200
     25 H63        13.9678   -0.3777   22.3639 hc         1 S62      0.042200
     26 H72        13.4345   -0.4155   25.2321 hc         1 S62      0.042450
     27 H73        13.2849    0.9316   24.1158 hc         1 S62      0.042450
     28 H82        11.0884    0.5796   25.1413 hc         1 S62      0.040950
     29 H83        11.0995   -1.1420   24.8092 hc         1 S62      0.040950
     30 H1          6.7895   -0.1794   22.4107 hn         1 S62      0.331500
     31 H10         4.9682    1.4688   21.5519 ha         1 S62      0.185000
     32 N3          3.4469    2.1227   19.3620 nu         1 S62     -0.726600
     33 H12         4.8689    1.4581   17.1783 h4         1 S62      0.029100
     34 F1          8.3249   -0.2804   19.0581 f          1 S62     -0.237200
     35 C14         2.8933    2.6997   20.5939 c3         1 S62      0.173100
     36 HN3         3.2022    2.6110   18.4978 hn         1 S62      0.404800
     37 H141        1.9313    3.1939   20.3669 h1         1 S62      0.044033
     38 H142        2.6948    1.9110   21.3434 h1         1 S62      0.044033
     39 H143        3.5354    3.4640   21.0690 h1         1 S62      0.044033
@<TRIPOS>BOND
    1    32    35 1
    2    16    34 1
    3    15    16 1
    4    14    15 1
    5    13    14 1
    6    13    32 1
    7    12    13 1
    8    11    12 1
    9    11    16 1
   10    10    11 1
   11     8     9 1
   12     7     8 1
   13     6     7 1
   14     5     6 1
   15     4     5 1
   16     4     9 1
   17     3     4 1
   18     2     3 1
   19     2    10 1
   20     1     2 1
   21    35    37 1
   22    35    38 1
   23    35    39 1
   24    32    36 1
   25    14    33 1
   26    12    31 1
   27    10    30 1
   28     9    28 1
   29     9    29 1
   30     8    26 1
   31     8    27 1
   32     7    24 1
   33     7    25 1
   34     6    22 1
   35     6    23 1
   36     5    20 1
   37     5    21 1
   38     4    19 1
   39     3    17 1
   40     3    18 1
@<TRIPOS>SUBSTRUCTURE
      1 S62               1 ****               0 ****  **** 
