@<TRIPOS>MOLECULE
Cpptraj Generated mol2 file.
   30    32     1     0     0
SMALL
USER_CHARGES


@<TRIPOS>ATOM
      1 O1          8.7359    1.1552   20.7104 o          1 S55     -0.586100
      2 C1          8.3168    0.1541   21.3064 c          1 S55      0.751100
      3 N1          9.0925   -0.5888   22.1902 ns         1 S55     -0.450100
      4 C2         10.4185   -0.1371   22.4653 ca         1 S55      0.052600
      5 C3         10.6013    1.1060   23.0706 ca         1 S55     -0.153500
      6 C4         11.8910    1.5385   23.3517 ca         1 S55     -0.108500
      7 C5         12.9787    0.7374   23.0257 ca         1 S55     -0.147000
      8 C6         12.7851   -0.4990   22.4246 ca         1 S55     -0.108500
      9 C7         11.5052   -0.9548   22.1392 ca         1 S55     -0.153500
     10 N2          6.9811   -0.2643   21.1353 ns         1 S55     -0.438100
     11 C8          6.2403    0.2978   20.0830 cc         1 S55     -0.024400
     12 C9          4.9909    0.9353   20.3538 cc         1 S55     -0.048300
     13 N5          4.2665    1.4677   19.2433 na         1 S55      0.038600
     14 C11         4.7824    1.3949   17.9397 cc         1 S55      0.285400
     15 N3          5.9352    0.8068   17.6833 nd         1 S55     -0.389000
     16 C12         6.6557    0.2773   18.7678 cd         1 S55      0.523200
     17 H1          8.8316   -1.5287   22.4943 hn         1 S55      0.308500
     18 H3          9.7443    1.7405   23.3212 ha         1 S55      0.148500
     19 H4         12.0421    2.5159   23.8202 ha         1 S55      0.135000
     20 H5         13.9917    1.0984   23.2153 ha         1 S55      0.134000
     21 H6         13.6468   -1.1188   22.1535 ha         1 S55      0.135000
     22 H7         11.3546   -1.9290   21.6584 ha         1 S55      0.148500
     23 H2          6.4996   -0.8926   21.7804 hn         1 S55      0.309500
     24 N4          3.0948    2.0560   19.6603 nc         1 S55     -0.247800
     25 H11         4.2110    1.8672   17.1155 h5         1 S55      0.082100
     26 F1          7.8207   -0.2395   18.4099 f          1 S55     -0.189200
     27 C14         4.2346    1.2029   21.4826 cd         1 S55     -0.249000
     28 H14         4.4619    0.9628   22.5184 ha         1 S55      0.170000
     29 C13         3.0738    1.9000   21.0096 cd         1 S55      0.012200
     30 H13         2.2384    2.2852   21.6127 h4         1 S55      0.059800
@<TRIPOS>BOND
    1    27    29 1
    2    24    29 1
    3    16    26 1
    4    15    16 1
    5    14    15 1
    6    13    14 1
    7    13    24 1
    8    12    13 1
    9    12    27 1
   10    11    12 1
   11    11    16 1
   12    10    11 1
   13     8     9 1
   14     7     8 1
   15     6     7 1
   16     5     6 1
   17     4     5 1
   18     4     9 1
   19     3     4 1
   20     2     3 1
   21     2    10 1
   22     1     2 1
   23    29    30 1
   24    27    28 1
   25    14    25 1
   26    10    23 1
   27     9    22 1
   28     8    21 1
   29     7    20 1
   30     6    19 1
   31     5    18 1
   32     3    17 1
@<TRIPOS>SUBSTRUCTURE
      1 S55               1 ****               0 ****  **** 
