@<TRIPOS>MOLECULE
SPE_0119
48 50 1 0 0
SMALL
NO_CHARGES


@<TRIPOS>ATOM
      1 O1          8.9350    1.3520   21.1120 O.2       1 T19   -0.5351
      2 N1          9.7200   -0.1520   22.6250 N.3       1 T19   -0.4968
      3 N3          6.1940    0.1490   17.8880 N.ar      1 T19   -0.2921
      4 N4          4.2370    1.4600   18.6150 N.ar      1 T19   -0.6490
      5 C1          8.8960    0.2060   21.5670 C.2       1 T19    0.6571
      6 C2L         7.9730   -0.8600   21.0130 C.3       1 T19   -0.0442
      7 C8          7.1040   -0.3150   19.9590 C.ar      1 T19   -0.1824
      8 C9          7.2400   -0.4750   18.5920 C.ar      1 T19    0.2044
      9 C10         5.3810    0.7470   18.8560 C.ar      1 T19    0.4388
     10 C11         3.6320    1.8960   19.7340 C.ar      1 T19    0.4222
     11 C12         4.0820    1.6620   21.0560 C.ar      1 T19   -0.2523
     12 C13         5.2380    0.9400   21.2730 C.ar      1 T19   -0.0610
     13 C14         5.9200    0.4670   20.1490 C.ar      1 T19   -0.1731
     14 N10         8.7709   -1.9390   20.4703 N.am      1 T19    0.0772
     15 H2L1        7.3270   -1.2900   21.8190 H         1 T19    0.0772
     16 H9          7.9066   -0.9502   18.1117 H         1 T19   -0.1325
     17 H11         2.7130    2.4810   19.5500 H         1 T19    0.0371
     18 H12         3.4980    2.0640   21.8940 H         1 T19    0.1520
     19 H13         5.6150    0.7320   22.2870 H         1 T19    0.1340
     20 HN3         6.1120    0.2120   16.8780 H         1 T19    0.3307
     21 H1          9.5590   -1.1199   22.8645 H         1 T19    0.0000
     22 C2         11.1040    0.0260   22.2399 C.ar      1 T19    0.0000
     23 C3         11.8466    1.1826   22.5187 C.ar      1 T19    0.0000
     24 N9         11.2809    2.1955   23.1728 N.pl3     1 T19    0.0000
     25 N8         13.1847    1.2726   22.1088 N.ar      1 T19    0.0000
     26 C5         13.7804    0.2060   21.4201 C.ar      1 T19    0.0000
     27 C6         13.0379   -0.9506   21.1412 C.ar      1 T19    0.0000
     28 H5         14.8109    0.2753   21.1044 H         1 T19    0.0000
     29 C16        13.6335   -2.0172   20.4525 C.1       1 T19    0.0000
     30 C7         11.6997   -1.0406   21.5511 C.ar      1 T19    0.0000
     31 H7         11.1279   -1.9313   21.3364 H         1 T19    0.0000
     32 N7         14.1746   -2.9860   19.8269 N.pl3     1 T19    0.0000
     33 H91        10.6223    2.0117   23.9162 H         1 T19    0.0000
     34 C17        11.6100    3.5599   22.8183 C.3       1 T19    0.0000
     35 H171       12.6791    3.7233   22.9539 H         1 T19    0.0000
     36 H172       11.3447    3.7383   21.7762 H         1 T19    0.0000
     37 C18        10.8320    4.5189   23.7121 C.3       1 T19    0.0000
     38 H181       11.0794    5.5464   23.4455 H         1 T19    0.0000
     39 H182        9.7629    4.3558   23.5757 H         1 T19    0.0000
     40 H183       11.0968    4.3400   24.7542 H         1 T19    0.0000
     41 H101        9.5884   -1.7323   19.9142 H         1 T19    0.0000
     42 C19         8.4271   -3.2042   20.7041 C.2       1 T19    0.0000
     43 C20         9.2002   -4.2496   20.1783 C.2       1 T19    0.0000
     44 O2          7.4246   -3.4577   21.3860 O.2       1 T19    0.0000
     45 H201       10.0743   -4.0286   19.5837 H         1 T19    0.0000
     46 C21         8.8381   -5.5819   20.4245 C.2       1 T19    0.0000
     47 H211        9.4334   -6.3870   20.0196 H         1 T19    0.0000
     48 H212        7.9640   -5.8030   21.0191 H         1 T19    0.0000
@<TRIPOS>BOND
     1    1    5 2
     2    2    5 1
     3    3    8 ar
     4    3    9 ar
     5    3   20 1
     6    4    9 ar
     7    4   10 ar
     8    5    6 1
     9    6    7 1
    10    6   14 1
    11    6   15 1
    12    7    8 ar
    13    7   13 ar
    14    8   16 1
    15    9   13 ar
    16   10   11 ar
    17   10   17 1
    18   11   12 ar
    19   11   18 1
    20   12   13 ar
    21   12   19 1
    22   21    2 1
    23   22    2 1
    24   23   22 ar
    25   24   23 1
    26   25   23 ar
    27   26   25 ar
    28   27   26 ar
    29   28   26 1
    30   29   27 1
    31   30   27 ar
    32   30   22 ar
    33   31   30 1
    34   32   29 2
    35   33   24 1
    36   34   24 1
    37   35   34 1
    38   36   34 1
    39   37   34 1
    40   38   37 1
    41   39   37 1
    42   40   37 1
    43   41   14 1
    44   42   14 am
    45   43   42 1
    46   44   42 2
    47   45   43 1
    48   46   43 2
    49   47   46 1
    50   48   46 1
@<TRIPOS>SUBSTRUCTURE
     1 T19     1 RESIDUE           4 A     T19     0 ROOT
