@<TRIPOS>MOLECULE
SPE_0120
45 47 1 0 0
SMALL
NO_CHARGES


@<TRIPOS>ATOM
      1 O1          8.9350    1.3520   21.1120 O.2       1 T20   -0.5351
      2 N1          9.7200   -0.1520   22.6250 N.3       1 T20   -0.4968
      3 N3          6.1940    0.1490   17.8880 N.ar      1 T20   -0.2921
      4 N4          4.2370    1.4600   18.6150 N.ar      1 T20   -0.6490
      5 C1          8.8960    0.2060   21.5670 C.2       1 T20    0.6571
      6 N2          7.9730   -0.8600   21.0130 N.am      1 T20   -0.0442
      7 C8          7.1040   -0.3150   19.9590 C.ar      1 T20   -0.1824
      8 C9          7.2400   -0.4750   18.5920 C.ar      1 T20    0.2044
      9 C10         5.3810    0.7470   18.8560 C.ar      1 T20    0.4388
     10 C11         3.6320    1.8960   19.7340 C.ar      1 T20    0.4222
     11 C12         4.0820    1.6620   21.0560 C.ar      1 T20   -0.2523
     12 C13         5.2380    0.9400   21.2730 C.ar      1 T20   -0.0610
     13 C14         5.9200    0.4670   20.1490 C.ar      1 T20   -0.1731
     14 H9          7.9066   -0.9502   18.1117 H         1 T20   -0.1325
     15 H11         2.7130    2.4810   19.5500 H         1 T20    0.0371
     16 H12         3.4980    2.0640   21.8940 H         1 T20    0.1520
     17 H13         5.6150    0.7320   22.2870 H         1 T20    0.1340
     18 HN3         6.1120    0.2120   16.8780 H         1 T20    0.3307
     19 H1          9.5590   -1.1199   22.8645 H         1 T20    0.0000
     20 C2         11.1040    0.0260   22.2399 C.ar      1 T20    0.0000
     21 C3         11.8466    1.1826   22.5187 C.ar      1 T20    0.0000
     22 N9         11.2809    2.1955   23.1728 N.pl3     1 T20    0.0000
     23 N8         13.1847    1.2726   22.1088 N.ar      1 T20    0.0000
     24 C5         13.7804    0.2060   21.4201 C.ar      1 T20    0.0000
     25 C6         13.0379   -0.9506   21.1412 C.ar      1 T20    0.0000
     26 H5         14.8109    0.2753   21.1044 H         1 T20    0.0000
     27 C16        13.6335   -2.0172   20.4525 C.1       1 T20    0.0000
     28 C7         11.6997   -1.0406   21.5511 C.ar      1 T20    0.0000
     29 H7         11.1279   -1.9313   21.3364 H         1 T20    0.0000
     30 N7         14.1746   -2.9860   19.8269 N.pl3     1 T20    0.0000
     31 H91        10.6223    2.0117   23.9162 H         1 T20    0.0000
     32 C17        11.6100    3.5599   22.8183 C.3       1 T20    0.0000
     33 H171       12.6791    3.7233   22.9539 H         1 T20    0.0000
     34 H172       11.3447    3.7383   21.7762 H         1 T20    0.0000
     35 C18        10.8320    4.5189   23.7121 C.3       1 T20    0.0000
     36 H181       11.0794    5.5464   23.4455 H         1 T20    0.0000
     37 H182        9.7629    4.3558   23.5757 H         1 T20    0.0000
     38 H183       11.0968    4.3400   24.7542 H         1 T20    0.0000
     39 C19         7.9513   -2.1258   21.4266 C.2       1 T20    0.0000
     40 O2          8.7215   -2.4979   22.3225 O.2       1 T20    0.0000
     41 C20         7.0566   -3.0374   20.8476 C.2       1 T20    0.0000
     42 H201        6.3851   -2.7130   20.0664 H         1 T20    0.0000
     43 C21         7.0337   -4.3703   21.2831 C.2       1 T20    0.0000
     44 H211        7.7052   -4.6948   22.0643 H         1 T20    0.0000
     45 H212        6.3447   -5.0724   20.8373 H         1 T20    0.0000
@<TRIPOS>BOND
     1    1    5 2
     2    2    5 1
     3    3    8 ar
     4    3    9 ar
     5    3   18 1
     6    4    9 ar
     7    4   10 ar
     8    5    6 am
     9    6    7 1
    10    7    8 ar
    11    7   13 ar
    12    8   14 1
    13    9   13 ar
    14   10   11 ar
    15   10   15 1
    16   11   12 ar
    17   11   16 1
    18   12   13 ar
    19   12   17 1
    20   19    2 1
    21   20    2 1
    22   21   20 ar
    23   22   21 1
    24   23   21 ar
    25   24   23 ar
    26   25   24 ar
    27   26   24 1
    28   27   25 1
    29   28   25 ar
    30   28   20 ar
    31   29   28 1
    32   30   27 2
    33   31   22 1
    34   32   22 1
    35   33   32 1
    36   34   32 1
    37   35   32 1
    38   36   35 1
    39   37   35 1
    40   38   35 1
    41   39    6 am
    42   40   39 2
    43   41   39 1
    44   42   41 1
    45   43   41 2
    46   44   43 1
    47   45   43 1
@<TRIPOS>SUBSTRUCTURE
     1 T20     1 RESIDUE           4 A     T20     0 ROOT
