@<TRIPOS>MOLECULE
S32
30 32 1 0 0
SMALL
AMBER ff14SB


@<TRIPOS>ATOM
      1 O1          9.0980    0.7170   20.8630 o         1 S32   -0.5951
      2 C1          8.5440   -0.2000   21.3730 c         1 S32    0.7841
      3 N1          9.1810   -0.9260   22.4450 n         1 S32   -0.4761
      4 C2         10.4660   -0.4470   22.8510 ca        1 S32    0.0696
      5 C3         10.5000    0.3870   23.9490 ca        1 S32   -0.1605
      6 C4         11.7040    0.9000   24.3650 ca        1 S32   -0.1050
      7 C5         12.8650    0.5840   23.6730 ca        1 S32   -0.1490
      8 C6         12.8230   -0.2500   22.5690 ca        1 S32   -0.1050
      9 C7         11.6120   -0.7630   22.1470 ca        1 S32   -0.1605
     10 N2          7.2370   -0.6260   20.9410 n         1 S32   -0.4741
     11 C8          6.5590    0.0580   19.8740 ca        1 S32   -0.0120
     12 N6          5.3530    0.6830   20.1520 na        1 S32   -0.0254
     13 C10         4.7260    1.3390   19.1050 ca        1 S32   -0.1436
     14 C11         5.3210    1.3050   17.8490 ca        1 S32    0.1842
     15 N3          6.4720    0.7100   17.6440 nb        1 S32   -0.1110
     16 C12         7.1030    0.0840   18.6020 ca        1 S32    0.1062
     17 H1          8.7452   -1.7251   22.8827 hn        1 S32    0.3175
     18 H3          9.5900    0.6338   24.4757 ha        1 S32    0.1495
     19 H4         11.7474    1.5476   25.2282 ha        1 S32    0.1360
     20 H5         13.8100    0.9927   23.9990 ha        1 S32    0.1360
     21 H6         13.7317   -0.4981   22.0408 ha        1 S32    0.1360
     22 H7         11.5616   -1.4026   21.2783 ha        1 S32    0.1495
     23 H2          6.7930   -1.4129   21.3924 hn        1 S32    0.3155
     24 N4          3.5847    1.9598   19.5608 nc        1 S32   -0.1210
     25 H11         4.8215    1.7819   17.0186 h4        1 S32    0.0551
     26 H12         8.0426   -0.4096   18.4023 h4        1 S32    0.0681
     27 C14         4.6056    0.9726   21.3469 c2        1 S32   -0.2090
     28 H14         4.8875    0.7672   22.3712 h4        1 S32    0.1770
     29 C13         3.5599    1.8145   20.9590 cd        1 S32    0.0062
     30 H13         2.8542    2.3814   21.5506 h4        1 S32    0.0568
@<TRIPOS>BOND
     1    1    2 2
     2    2    3 1
     3    2   10 am
     4    3    4 1
     5   10   11 1
     6    4    5 ar
     7    4    9 ar
     8    5    6 ar
     9    9    8 ar
    10    6    7 ar
    11    7    8 ar
    12   11   12 1
    13   11   16 2
    14   12   13 ar
    15   16   15 2
    16   13   14 1
    17   14   15 2
    18   17    3 1
    19   18    5 1
    20   19    6 1
    21   20    7 1
    22   21    8 1
    23   22    9 1
    24   23   10 1
    25   24   13 ar
    26   25   14 1
    27   26   16 1
    28   27   12 ar
    29   28   27 1
    30   29   27 ar
    31   30   29 1
    32   24   29 ar
@<TRIPOS>SUBSTRUCTURE
     1 S32     1 RESIDUE           4 A     S32     0 ROOT
