@<TRIPOS>MOLECULE
S42
38 40 1 0 2
SMALL
AMBER ff14SB


@<TRIPOS>ATOM
      1 O1          9.3680    1.1120   21.0320 O.2       1 S42   -0.5811
      2 C1          8.8120    0.3220   21.7270 C.2       1 S42    0.6641
      3 C2          9.3520   -0.1440   23.0660 C.3       1 S42   -0.1484
      4 C3         10.8670   -0.0690   23.1260 C.3       1 S42   -0.0557
      5 C4         11.5080   -1.0370   22.1340 C.3       1 S42   -0.0749
      6 C5         12.7630   -1.7020   22.6880 C.3       1 S42   -0.0729
      7 C6         13.5520   -0.8480   23.6720 C.3       1 S42   -0.0764
      8 C7         12.7110   -0.1420   24.7310 C.3       1 S42   -0.0729
      9 C8         11.2210   -0.3910   24.5640 C.3       1 S42   -0.0749
     10 N1          7.5600   -0.2470   21.3550 N.am      1 S42   -0.4661
     11 C9          6.9510    0.1800   20.1360 C.ar      1 S42    0.0033
     12 C10         5.7034    0.7483   20.2598 C.ar      1 S42   -0.1080
     13 C11         5.0950    1.2170   19.1050 N.pl3     1 S42   -0.1246
     14 C12         5.7610    1.0320   17.9010 C.ar      1 S42    0.3632
     15 N2          6.9560    0.4630   17.8400 N.2       1 S42   -0.6300
     16 C13         7.5800    0.0350   18.9160 C.ar      1 S42    0.3342
     17 H22         9.0443   -1.1769   23.2291 H         1 S42    0.0647
     18 H23         8.9335    0.4806   23.8551 H         1 S42    0.0647
     19 H3         11.1867    0.9472   22.8953 H         1 S42    0.0747
     20 H42        10.7833   -1.8124   21.8858 H         1 S42    0.0425
     21 H43        11.7679   -0.4924   21.2263 H         1 S42    0.0425
     22 H52        13.4162   -1.9462   21.8502 H         1 S42    0.0382
     23 H53        12.4748   -2.6282   23.1852 H         1 S42    0.0382
     24 H62        14.2665   -1.4936   24.1828 H         1 S42    0.0417
     25 H63        14.1054   -0.0951   23.1108 H         1 S42    0.0417
     26 H72        13.0158   -0.5015   25.7138 H         1 S42    0.0382
     27 H73        12.8984    0.9302   24.6735 H         1 S42    0.0382
     28 H82        10.6577    0.2528   25.2395 H         1 S42    0.0425
     29 H83        10.9950   -1.4362   24.7751 H         1 S42    0.0425
     30 H1          7.1128   -0.9375   21.9409 H         1 S42    0.3175
     31 C16         4.8666    1.1199   21.3649 C.ar      1 S42   -0.2090
     32 N3          3.9970    1.9789   19.4294 N.pl3     1 S42   -0.2294
     33 H12         5.2908    1.3619   16.9864 H         1 S42    0.0211
     34 H13         8.5581   -0.4176   18.8467 H         1 S42    0.0601
     35 C14         3.8474    1.9058   20.8298 C.ar      1 S42   -0.0710
     36 H142        3.1337    2.5335   21.3423 H         1 S42    0.1680
     37 H16         5.0733    0.9831   22.4180 H         1 S42    0.1510
     38 HN3         3.7131    2.7880   18.8758 H         1 S42    0.3037
@<TRIPOS>BOND
     1    1    2 2
     2    2    3 1
     3    2   10 am
     4    4    3 1
     5   10   11 1
     6    4    5 1
     7    4    9 1
     8    5    6 1
     9    9    8 1
    10    6    7 1
    11    7    8 1
    12   11   12 2
    13   11   16 2
    14   12   13 2
    15   16   15 2
    16   13   14 2
    17   14   15 2
    18   17    3 1
    19   18    3 1
    20   19    4 1
    21   20    5 1
    22   21    5 1
    23   22    6 1
    24   23    6 1
    25   24    7 1
    26   25    7 1
    27   26    8 1
    28   27    8 1
    29   28    9 1
    30   29    9 1
    31   30   10 1
    32   31   12 2
    33   32   13 2
    34   33   14 1
    35   34   16 1
    36   35   32 2
    37   36   35 1
    38   37   31 1
    39   35   31 2
    40   38   32 1
@<TRIPOS>SUBSTRUCTURE
     1 S42     1 RESIDUE           4 A     S42     0 ROOT
@<TRIPOS>SET
ANCHOR          STATIC     ATOMS    <user>   **** Anchor Atom Set
14 35 36 38 31 32 37
RIGID           STATIC     BONDS    <user>   **** Rigid Bond Set
12 38 40 39 37 36
