@<TRIPOS>MOLECULE
S27
35 36 1 0 0
SMALL
AMBER ff14SB


@<TRIPOS>ATOM
      1 O1          9.0980    0.7170   20.8630 o         1 S27   -0.6061
      2 C1          8.5440   -0.2000   21.3730 c2        1 S27    0.6531
      3 N1          9.1810   -0.9260   22.4450 n         1 S27   -0.4061
      4 C2         10.4660   -0.4470   22.8510 ca        1 S27    0.0686
      5 C3         10.5000    0.3870   23.9490 ca        1 S27   -0.1600
      6 C4         11.7040    0.9000   24.3650 ca        1 S27   -0.1070
      7 C5         12.8650    0.5840   23.6730 ca        1 S27   -0.1510
      8 C6         12.8230   -0.2500   22.5690 ca        1 S27   -0.1070
      9 C7         11.6120   -0.7630   22.1470 ca        1 S27   -0.1600
     10 N2          7.2370   -0.6260   20.9410 n         1 S27   -0.4111
     11 C8          6.5590    0.0580   19.8740 ca        1 S27   -0.0027
     12 C9          5.3530    0.6830   20.1520 ca        1 S27   -0.2190
     13 C10         4.7260    1.3390   19.1050 ca        1 S27    0.0703
     14 C11         5.3210    1.3050   17.8490 ca        1 S27    0.3172
     15 N3          6.4720    0.7100   17.6440 nb        1 S27   -0.6190
     16 C12         7.1030    0.0840   18.6020 ca        1 S27    0.3412
     17 H1          8.7452   -1.7251   22.8827 hn        1 S27    0.3095
     18 H3          9.5900    0.6338   24.4757 ha        1 S27    0.1490
     19 H4         11.7474    1.5476   25.2282 ha        1 S27    0.1340
     20 H5         13.8100    0.9927   23.9990 ha        1 S27    0.1340
     21 H6         13.7317   -0.4981   22.0408 ha        1 S27    0.1340
     22 H7         11.5616   -1.4026   21.2783 ha        1 S27    0.1490
     23 H2          6.7930   -1.4129   21.3924 hn        1 S27    0.3135
     24 H9          4.9211    0.6595   21.1416 ha        1 S27    0.1340
     25 N4          3.6060    2.1394   19.5077 nh        1 S27   -0.6480
     26 H11         4.8215    1.7819   17.0186 h4        1 S27    0.0241
     27 H12         8.0426   -0.4096   18.4023 h4        1 S27    0.0611
     28 C13         3.5263    2.6451   20.9059 c3        1 S27    0.1826
     29 C14         2.8400    3.0991   18.6681 c3        1 S27    0.1826
     30 H131        2.9636    3.5906   21.0417 h1        1 S27    0.0399
     31 H132        2.9942    1.9122   21.5173 h1        1 S27    0.0399
     32 H133        4.5223    2.8362   21.3466 h1        1 S27    0.0399
     33 H141        1.7926    2.7296   18.6024 h1        1 S27    0.0399
     34 H142        3.2809    3.2954   17.6964 h1        1 S27    0.0399
     35 H143        2.7658    4.0933   19.1412 h1        1 S27    0.0399
@<TRIPOS>BOND
     1    1    2 2
     2    2    3 2
     3    2   10 2
     4    3    4 1
     5   10   11 1
     6    4    5 ar
     7    4    9 ar
     8    5    6 ar
     9    9    8 ar
    10    6    7 ar
    11    7    8 ar
    12   11   12 ar
    13   11   16 ar
    14   12   13 ar
    15   16   15 ar
    16   13   14 ar
    17   14   15 ar
    18   17    3 1
    19   18    5 1
    20   19    6 1
    21   20    7 1
    22   21    8 1
    23   22    9 1
    24   23   10 1
    25   24   12 1
    26   25   13 1
    27   26   14 1
    28   27   16 1
    29   28   25 1
    30   29   25 1
    31   30   28 1
    32   31   28 1
    33   32   28 1
    34   33   29 1
    35   34   29 1
    36   35   29 1
@<TRIPOS>SUBSTRUCTURE
     1 S27     1 RESIDUE           4 A     S27     0 ROOT
