@<TRIPOS>MOLECULE
S34
30 32 1 0 0
SMALL
AMBER ff14SB


@<TRIPOS>ATOM
      1 O1          9.0980    0.7170   20.8630 o         1 S34   -0.6011
      2 C1          8.5440   -0.2000   21.3730 c2        1 S34    0.6421
      3 N1          9.1810   -0.9260   22.4450 n         1 S34   -0.3931
      4 C2         10.4660   -0.4470   22.8510 ca        1 S34    0.0566
      5 C3         10.5000    0.3870   23.9490 ca        1 S34   -0.1550
      6 C4         11.7040    0.9000   24.3650 ca        1 S34   -0.1085
      7 C5         12.8650    0.5840   23.6730 ca        1 S34   -0.1470
      8 C6         12.8230   -0.2500   22.5690 ca        1 S34   -0.1085
      9 C7         11.6120   -0.7630   22.1470 ca        1 S34   -0.1550
     10 N2          7.2370   -0.6260   20.9410 n         1 S34   -0.3961
     11 C8          6.5590    0.0580   19.8740 ca        1 S34    0.0283
     12 C9          5.3530    0.6830   20.1520 ca        1 S34   -0.1580
     13 C10         4.7260    1.3390   19.1050 ca        1 S34   -0.1236
     14 C11         5.3210    1.3050   17.8490 ca        1 S34    0.3692
     15 N3          6.4720    0.7100   17.6440 nb        1 S34   -0.6180
     16 C12         7.1030    0.0840   18.6020 ca        1 S34    0.3392
     17 H1          8.7452   -1.7251   22.8827 hn        1 S34    0.3075
     18 H3          9.5900    0.6338   24.4757 ha        1 S34    0.1490
     19 H4         11.7474    1.5476   25.2282 ha        1 S34    0.1350
     20 H5         13.8100    0.9927   23.9990 ha        1 S34    0.1350
     21 H6         13.7317   -0.4981   22.0408 ha        1 S34    0.1350
     22 H7         11.5616   -1.4026   21.2783 ha        1 S34    0.1490
     23 H2          6.7930   -1.4129   21.3924 hn        1 S34    0.3155
     24 N4          3.7633    2.1539   19.6615 na        1 S34   -0.0416
     25 H11         4.8215    1.7819   17.0186 h4        1 S34    0.0301
     26 H12         8.0426   -0.4096   18.4023 h4        1 S34    0.0671
     27 C14         4.6318    1.0258   21.2643 c2        1 S34   -0.1670
     28 N7          3.6797    1.9290   21.0291 nc        1 S34   -0.1988
     29 HN4         3.4563    3.0471   19.2744 hn        1 S34    0.3317
     30 H14         4.8979    0.7575   22.2838 h4        1 S34    0.1800
@<TRIPOS>BOND
     1    1    2 2
     2    2    3 2
     3    2   10 2
     4    3    4 1
     5   10   11 1
     6    4    5 ar
     7    4    9 ar
     8    5    6 ar
     9    9    8 ar
    10    6    7 ar
    11    7    8 ar
    12   11   12 ar
    13   11   16 ar
    14   12   13 ar
    15   16   15 ar
    16   13   14 ar
    17   14   15 ar
    18   17    3 1
    19   18    5 1
    20   19    6 1
    21   20    7 1
    22   21    8 1
    23   22    9 1
    24   23   10 1
    25   24   13 ar
    26   25   14 1
    27   26   16 1
    28   27   12 ar
    29   28   27 ar
    30   24   28 ar
    31   29   24 1
    32   30   27 1
@<TRIPOS>SUBSTRUCTURE
     1 S34     1 RESIDUE           4 A     S34     0 ROOT
