@<TRIPOS>MOLECULE
S41
39 41 1 0 0
SMALL
AMBER ff14SB


@<TRIPOS>ATOM
      1 O1          9.3680    1.1120   21.0320 o         1 S41   -0.5761
      2 C1          8.8120    0.3220   21.7270 c         1 S41    0.6651
      3 C2          9.3520   -0.1440   23.0660 c3        1 S41   -0.1474
      4 C3         10.8670   -0.0690   23.1260 c3        1 S41   -0.0567
      5 C4         11.5080   -1.0370   22.1340 c3        1 S41   -0.0744
      6 C5         12.7630   -1.7020   22.6880 c3        1 S41   -0.0734
      7 C6         13.5520   -0.8480   23.6720 c3        1 S41   -0.0774
      8 C7         12.7110   -0.1420   24.7310 c3        1 S41   -0.0734
      9 C8         11.2210   -0.3910   24.5640 c3        1 S41   -0.0744
     10 N1          7.5600   -0.2470   21.3550 n         1 S41   -0.4761
     11 C9          6.9510    0.1800   20.1360 ca        1 S41   -0.0297
     12 C10         5.7070    0.7820   20.2730 ca        1 S41   -0.1513
     13 C11         5.0950    1.2170   19.1050 ca        1 S41    0.2913
     14 C12         5.7610    1.0320   17.9010 ca        1 S41    0.3479
     15 N2          6.9560    0.4630   17.8400 nb        1 S41   -0.6360
     16 C13         7.5800    0.0350   18.9160 ca        1 S41    0.3622
     17 H22         9.0443   -1.1769   23.2291 hc        1 S41    0.0652
     18 H23         8.9335    0.4806   23.8551 hc        1 S41    0.0652
     19 H3         11.1867    0.9472   22.8953 hc        1 S41    0.0767
     20 H42        10.7833   -1.8124   21.8858 hc        1 S41    0.0417
     21 H43        11.7679   -0.4924   21.2263 hc        1 S41    0.0417
     22 H52        13.4162   -1.9462   21.8502 hc        1 S41    0.0392
     23 H53        12.4748   -2.6282   23.1852 hc        1 S41    0.0392
     24 H62        14.2665   -1.4936   24.1828 hc        1 S41    0.0422
     25 H63        14.1054   -0.0951   23.1108 hc        1 S41    0.0422
     26 H72        13.0158   -0.5015   25.7138 hc        1 S41    0.0392
     27 H73        12.8984    0.9302   24.6735 hc        1 S41    0.0392
     28 H82        10.6577    0.2528   25.2395 hc        1 S41    0.0417
     29 H83        10.9950   -1.4362   24.7751 hc        1 S41    0.0417
     30 H1          7.1128   -0.9375   21.9409 hn        1 S41    0.3145
     31 C16         5.0428    0.9881   21.5053 ca        1 S41   -0.0910
     32 N3          3.8250    1.8155   19.1634 nb        1 S41   -0.6390
     33 H12         5.2908    1.3619   16.9864 h4        1 S41    0.0421
     34 H13         8.5581   -0.4176   18.8467 h4        1 S41    0.0611
     35 C14         3.1971    2.0957   20.3654 ca        1 S41    0.4082
     36 C15         3.8109    1.6690   21.5516 ca        1 S41   -0.2363
     37 H14         2.3295    2.7542   20.3443 h4        1 S41    0.0281
     38 H15         3.3708    1.9223   22.5089 ha        1 S41    0.1470
     39 H16         5.5074    0.6987   22.4405 ha        1 S41    0.1300
@<TRIPOS>BOND
     1    1    2 2
     2    2    3 1
     3    2   10 am
     4    4    3 1
     5   10   11 1
     6    4    5 1
     7    4    9 1
     8    5    6 1
     9    9    8 1
    10    6    7 1
    11    7    8 1
    12   11   12 2
    13   11   16 2
    14   12   13 2
    15   16   15 2
    16   13   14 2
    17   14   15 2
    18   17    3 1
    19   18    3 1
    20   19    4 1
    21   20    5 1
    22   21    5 1
    23   22    6 1
    24   23    6 1
    25   24    7 1
    26   25    7 1
    27   26    8 1
    28   27    8 1
    29   28    9 1
    30   29    9 1
    31   30   10 1
    32   31   12 2
    33   32   13 2
    34   33   14 1
    35   34   16 1
    36   35   32 2
    37   36   35 2
    38   37   35 1
    39   36   31 2
    40   38   36 1
    41   39   31 1
@<TRIPOS>SUBSTRUCTURE
     1 S41     1 RESIDUE           4 A     S41     0 ROOT
