@<TRIPOS>MOLECULE
S28
31 33 1 0 0
SMALL
AMBER ff14SB


@<TRIPOS>ATOM
      1 O1          9.0980    0.7170   20.8630 o         1 S28   -0.6021
      2 C1          8.5440   -0.2000   21.3730 c2        1 S28    0.6501
      3 N1          9.1810   -0.9260   22.4450 n         1 S28   -0.3961
      4 C2         10.4660   -0.4470   22.8510 ca        1 S28    0.0586
      5 C3         10.5000    0.3870   23.9490 ca        1 S28   -0.1550
      6 C4         11.7040    0.9000   24.3650 ca        1 S28   -0.1075
      7 C5         12.8650    0.5840   23.6730 ca        1 S28   -0.1460
      8 C6         12.8230   -0.2500   22.5690 ca        1 S28   -0.1075
      9 C7         11.6120   -0.7630   22.1470 ca        1 S28   -0.1550
     10 N2          7.2370   -0.6260   20.9410 n         1 S28   -0.4171
     11 C8          6.5590    0.0580   19.8740 ca        1 S28    0.0013
     12 C9          5.3530    0.6830   20.1520 ca        1 S28   -0.2796
     13 C10         4.7260    1.3390   19.1050 ca        1 S28    0.3103
     14 C11         5.3210    1.3050   17.8490 ca        1 S28    0.3439
     15 N3          6.4720    0.7100   17.6440 nb        1 S28   -0.6230
     16 C12         7.1030    0.0840   18.6020 ca        1 S28    0.3642
     17 H1          8.7452   -1.7251   22.8827 hn        1 S28    0.3095
     18 H3          9.5900    0.6338   24.4757 ha        1 S28    0.1490
     19 H4         11.7474    1.5476   25.2282 ha        1 S28    0.1360
     20 H5         13.8100    0.9927   23.9990 ha        1 S28    0.1360
     21 H6         13.7317   -0.4981   22.0408 ha        1 S28    0.1360
     22 H7         11.5616   -1.4026   21.2783 ha        1 S28    0.1490
     23 H2          6.7930   -1.4129   21.3924 hn        1 S28    0.3175
     24 N4          3.7155    2.2909   19.3144 nb        1 S28   -0.6600
     25 H11         4.8215    1.7819   17.0186 h4        1 S28    0.0471
     26 H12         8.0426   -0.4096   18.4023 h4        1 S28    0.0671
     27 C15         4.8550    0.8991   21.4549 ca        1 S28    0.4482
     28 H15         5.3681    0.4737   22.3191 h4        1 S28    0.0191
     29 N5          3.7941    1.8117   21.6652 nb        1 S28   -0.6850
     30 C13         3.1888    2.4695   20.5832 ca        1 S28    0.6299
     31 H13         2.4807    3.2945   20.7222 h5        1 S28    0.0611
@<TRIPOS>BOND
     1    1    2 2
     2    2    3 2
     3    2   10 2
     4    3    4 1
     5   10   11 1
     6    4    5 ar
     7    4    9 ar
     8    5    6 ar
     9    9    8 ar
    10    6    7 ar
    11    7    8 ar
    12   11   12 ar
    13   11   16 ar
    14   12   13 ar
    15   16   15 ar
    16   13   14 ar
    17   14   15 ar
    18   17    3 1
    19   18    5 1
    20   19    6 1
    21   20    7 1
    22   21    8 1
    23   22    9 1
    24   23   10 1
    25   24   13 ar
    26   25   14 1
    27   26   16 1
    28   27   12 ar
    29   28   27 1
    30   29   27 ar
    31   30   29 ar
    32   31   30 1
    33   30   24 ar
@<TRIPOS>SUBSTRUCTURE
     1 S28     1 RESIDUE           4 A     S28     0 ROOT
