@<TRIPOS>MOLECULE
S33
30 32 1 0 0
SMALL
USER_CHARGES


@<TRIPOS>ATOM
      1 O1         -0.4690   -0.5430   -1.6120 o         1 S33   -0.6081
      2 C1         -0.1640    0.0910   -0.6100 c         1 S33    0.7721
      3 N1          0.0190   -0.4740    0.6360 ns        1 S33   -0.4531
      4 N2          0.0370    1.4600   -0.5590 ns        1 S33   -0.4621
      5 C2         -0.1330   -1.8290    0.9850 ca        1 S33    0.0173
      6 C3         -0.0010    2.3680   -1.6360 ca        1 S33    0.0606
      7 C4          0.1690   -2.2070    2.3030 ca        1 S33    0.0374
      8 C5         -0.5650   -2.8660    0.1650 ca        1 S33    0.3522
      9 C6          0.0750    1.9840   -2.9760 ca        1 S33   -0.1570
     10 C7         -0.0840    3.7320   -1.3260 ca        1 S33   -0.1570
     11 N3          0.6130   -1.4290    3.3570 nc        1 S33   -0.5821
     12 C8          0.0310   -3.5310    2.6950 ca        1 S33   -0.1725
     13 N4         -0.7000   -4.1660    0.5550 nb        1 S33   -0.6280
     14 C9          0.0510    2.9460   -3.9910 ca        1 S33   -0.1085
     15 C10        -0.1080    4.6930   -2.3400 ca        1 S33   -0.1085
     16 C11         0.7440   -2.2620    4.3640 cd        1 S33    0.4297
     17 N5          0.4050   -3.5410    4.0140 na        1 S33   -0.2763
     18 C12        -0.4020   -4.5170    1.8270 ca        1 S33    0.3762
     19 C13        -0.0420    4.2990   -3.6740 ca        1 S33   -0.1500
     20 H1          0.3480    0.1080    1.3970 hn        1 S33    0.3295
     21 H2          0.1410    1.8630    0.3580 hn        1 S33    0.3105
     22 H3         -0.8350   -2.6990   -0.8740 h4        1 S33    0.0651
     23 H4          0.1630    0.9410   -3.2640 ha        1 S33    0.1490
     24 H5         -0.1400    4.0650   -0.2930 ha        1 S33    0.1490
     25 H6          0.1070    2.6320   -5.0300 ha        1 S33    0.1340
     26 H7         -0.1800    5.7480   -2.0880 ha        1 S33    0.1340
     27 H8          1.0760   -2.0050    5.3620 h5        1 S33    0.0728
     28 H9          0.4270   -4.3470    4.6220 hn        1 S33    0.3117
     29 H10        -0.5210   -5.5590    2.0960 h4        1 S33    0.0261
     30 H11        -0.0610    5.0440   -4.4650 ha        1 S33    0.1330
@<TRIPOS>BOND
     1    1    2 1
     2    2    3 1
     3    2    4 1
     4    3   20 1
     5    4   21 1
     6    7   11 1
     7    8   22 1
     8    9   23 1
     9   10   24 1
    10   11   16 1
    11   14   25 1
    12   15   26 1
    13   16   27 1
    14   17   28 1
    15   18   29 1
    16   19   30 1
    17   10    6 1
    18   10   15 1
    19   17   16 1
    20   17   12 1
    21   18   12 1
    22   18   13 1
    23   12    7 1
    24    5    3 1
    25    5    7 1
    26    5    8 1
    27   13    8 1
    28   19   15 1
    29   19   14 1
    30    6    9 1
    31    6    4 1
    32   14    9 1
@<TRIPOS>SUBSTRUCTURE
     1 S33     1 RESIDUE           4 A     S33     0 ROOT
