@<TRIPOS>MOLECULE
SPE_0117
46 47 1 0 0
SMALL
NO_CHARGES


@<TRIPOS>ATOM
      1 O1          8.7130    1.1320   20.7270 O.2       1 T17   -0.6111
      2 C1          8.1730    0.2470   21.4110 C.2       1 T17    0.7731
      3 N1          8.8690   -0.4720   22.3760 N.pl3     1 T17   -0.4591
      4 C2         10.2210   -0.0890   22.6360 C.ar      1 T17    0.0576
      5 C3         10.4608    0.9266   23.5624 C.ar      1 T17   -0.1550
      6 N8         11.7685    1.3270   23.8046 N.ar      1 T17   -0.1085
      7 C5         12.8194    0.7201   23.1290 C.ar      1 T17   -0.1470
      8 C6         12.5694   -0.2962   22.2156 C.ar      1 T17   -0.1085
      9 C7         11.2690   -0.7155   21.9597 C.ar      1 T17   -0.1550
     10 C2L         6.8070   -0.0630   21.2400 C.3       1 T17   -0.4571
     11 C8          6.1570    0.4870   20.1140 C.ar      1 T17   -0.0247
     12 C9          5.0030    1.2550   20.2430 C.ar      1 T17   -0.1620
     13 C10         4.3880    1.7510   19.0790 C.ar      1 T17    0.0473
     14 C11         4.9610    1.4340   17.8220 C.ar      1 T17    0.3342
     15 N3          6.0760    0.7010   17.6720 N.ar      1 T17   -0.6300
     16 C12         6.6590    0.2470   18.8140 C.ar      1 T17    0.5085
     17 H1          8.5100   -1.3280   22.7970 H         1 T17    0.3115
     18 N9          9.4537    1.5147   24.2056 N.pl3     1 T17    0.1485
     19 H5         13.8432    1.0639   23.2944 H         1 T17    0.1350
     20 C16        13.6318   -0.8938   21.5220 C.1       1 T17    0.1345
     21 H7         11.0754   -1.5097   21.2299 H         1 T17    0.1485
     22 H9          4.5950    1.4850   21.2360 H         1 T17    0.1810
     23 N4          3.2040    2.4560   19.1580 N.pl3     1 T17   -0.8142
     24 H11         4.5440    1.8210   16.8850 H         1 T17    0.0311
     25 F1          7.6909   -0.3901   18.6374 F         1 T17   -0.2362
     26 H41         2.9930    2.9300   20.0280 H         1 T17    0.4008
     27 H42         2.9040    2.9530   18.3300 H         1 T17    0.4008
     28 N7         14.5967   -1.4367   20.8919 N.pl3     1 T17    0.0000
     29 C17         9.1828    2.9210   23.9944 C.3       1 T17    0.0000
     30 H91         8.8789    0.9795   24.8407 H         1 T17    0.0000
     31 C18         7.9882    3.3420   24.8425 C.3       1 T17    0.0000
     32 H172       10.0564    3.5061   24.2818 H         1 T17    0.0000
     33 H171        8.9600    3.0940   22.9415 H         1 T17    0.0000
     34 H181        7.7842    4.4009   24.6835 H         1 T17    0.0000
     35 H182        8.2114    3.1694   25.8953 H         1 T17    0.0000
     36 H183        7.1146    2.7567   24.5556 H         1 T17    0.0000
     37 N10         6.6957   -1.5033   21.1466 N.am      1 T17    0.0000
     38 H2L1        6.2716    0.2612   22.1324 H         1 T17    0.0000
     39 C19         5.5142   -2.0926   21.3205 C.2       1 T17    0.0000
     40 H101        7.5142   -2.0613   20.9494 H         1 T17    0.0000
     41 C20         5.4063   -3.4880   21.2300 C.2       1 T17    0.0000
     42 O2          4.5103   -1.4082   21.5621 O.2       1 T17    0.0000
     43 C21         6.5428   -4.2627   20.9564 C.2       1 T17    0.0000
     44 H201        4.4481   -3.9658   21.3709 H         1 T17    0.0000
     45 H211        7.5010   -3.7849   20.8155 H         1 T17    0.0000
     46 H212        6.4598   -5.3373   20.8868 H         1 T17    0.0000
@<TRIPOS>BOND
     1    1    2 2
     2    2    3 2
     3    2   10 2
     4    3    4 1
     5    3   17 1
     6    4    5 ar
     7    4    9 ar
     8    5    6 ar
     9    5   18 1
    10    6    7 ar
    11    7    8 ar
    12    7   19 1
    13    8    9 ar
    14    8   20 1
    15    9   21 1
    16   10   11 1
    17   11   12 ar
    18   11   16 ar
    19   12   13 ar
    20   12   22 1
    21   13   14 ar
    22   13   23 1
    23   14   15 ar
    24   14   24 1
    25   15   16 ar
    26   16   25 1
    27   23   26 1
    28   23   27 1
    29   28   20 2
    30   29   18 1
    31   30   18 1
    32   31   29 1
    33   32   29 1
    34   33   29 1
    35   34   31 1
    36   35   31 1
    37   36   31 1
    38   37   10 1
    39   38   10 1
    40   39   37 am
    41   40   37 1
    42   41   39 1
    43   42   39 2
    44   43   41 2
    45   44   41 1
    46   45   43 1
    47   46   43 1
@<TRIPOS>SUBSTRUCTURE
     1 T17     1 RESIDUE           4 A     T17     0 ROOT
