@<TRIPOS>MOLECULE
SPE_0053
32 34 1 0 0
SMALL
NO_CHARGES


@<TRIPOS>ATOM
      1 O1          8.8500    1.0020   20.7900 O.2       1 S53   -0.6051
      2 C1          8.3940    0.0160   21.3920 C.2       1 S53    0.7841
      3 N1          9.1430   -0.7170   22.3080 N.pl3     1 S53   -0.4671
      4 C2         10.4530   -0.2490   22.6210 C.ar      1 S53    0.0626
      5 C3         10.5860    0.9070   23.3910 C.ar      1 S53   -0.1575
      6 C4         11.8580    1.3920   23.6630 C.ar      1 S53   -0.1070
      7 C5         12.9760    0.7250   23.1760 C.ar      1 S53   -0.1490
      8 C6         12.8310   -0.4430   22.4370 C.ar      1 S53   -0.1070
      9 C7         11.5680   -0.9430   22.1480 C.ar      1 S53   -0.1575
     10 N2          7.0630   -0.3900   21.2000 N.pl3     1 S53   -0.4841
     11 C8          6.3370    0.1850   20.1350 C.ar      1 S53   -0.0227
     12 C9          5.1740    0.9630   20.3970 C.ar      1 S53   -0.1483
     13 C10         4.4330    1.4110   19.2900 C.ar      1 S53    0.2903
     14 C11         4.9320    1.1520   17.9700 C.ar      1 S53    0.3519
     15 N3          6.0510    0.4830   17.7460 N.ar      1 S53   -0.6360
     16 C12         6.7460   -0.0110   18.8270 C.ar      1 S53    0.3692
     17 H1          8.8640   -1.6400   22.6390 H         1 S53    0.3085
     18 H3          9.7030    1.4340   23.7740 H         1 S53    0.1490
     19 H4         11.9710    2.3080   24.2530 H         1 S53    0.1350
     20 H5         13.9730    1.1370   23.3490 H         1 S53    0.1350
     21 H6         13.7140   -0.9660   22.0600 H         1 S53    0.1350
     22 H7         11.4520   -1.8540   21.5500 H         1 S53    0.1490
     23 H2          6.5630   -1.0030   21.8470 H         1 S53    0.3175
     24 N4          3.2330    2.0870   19.4260 N.ar      1 S53   -0.6380
     25 H11         4.3940    1.5390   17.0930 H         1 S53    0.0431
     26 F1          7.7559   -0.6405   18.5345 F         1 S53    0.0621
     27 C15         4.7250    1.3210   21.6970 C.ar      1 S53   -0.0920
     28 H15         5.3100    1.0270   22.5790 H         1 S53    0.1300
     29 C14         3.5740    2.0400   21.8310 C.ar      1 S53   -0.2343
     30 H14         3.1950    2.3600   22.8130 H         1 S53    0.1470
     31 C13         2.8340    2.3780   20.6550 C.ar      1 S53    0.4082
     32 H13         1.8660    2.9110   20.7290 H         1 S53    0.0281
@<TRIPOS>BOND
     1    1    2 2
     2    2    3 2
     3    2   10 2
     4    3    4 1
     5    3   17 1
     6    4    5 ar
     7    4    9 ar
     8    5    6 ar
     9    5   18 1
    10    6    7 ar
    11    6   19 1
    12    7    8 ar
    13    7   20 1
    14    8    9 ar
    15    8   21 1
    16    9   22 1
    17   10   11 1
    18   10   23 1
    19   11   12 ar
    20   11   16 ar
    21   12   13 ar
    22   12   27 ar
    23   13   14 ar
    24   13   24 ar
    25   14   15 ar
    26   14   25 1
    27   15   16 ar
    28   16   26 1
    29   24   31 ar
    30   27   28 1
    31   27   29 ar
    32   29   30 1
    33   29   31 ar
    34   31   32 1
@<TRIPOS>SUBSTRUCTURE
     1 S53     1 RESIDUE           4 A     S53     0 ROOT
