@<TRIPOS>MOLECULE
SPE_0061
36 37 1 0 0
SMALL
NO_CHARGES


@<TRIPOS>ATOM
      1 O1          9.3170    1.1530   20.9980 O.2       1 S61   -0.5811
      2 C1          8.7310    0.4500   21.8320 C.2       1 S61    0.6661
      3 C2          9.3420   -0.0020   23.1400 C.3       1 S61   -0.1534
      4 C3         10.8710    0.0080   23.0540 C.3       1 S61   -0.0617
      5 C4         11.3510   -1.0230   22.0300 C.3       1 S61   -0.0749
      6 C5         12.5450   -1.8350   22.5170 C.3       1 S61   -0.0749
      7 C6         13.5810   -0.9800   23.2300 C.3       1 S61   -0.0774
      8 C7         12.9800   -0.1230   24.3430 C.3       1 S61   -0.0749
      9 C8         11.4670   -0.2670   24.4330 C.3       1 S61   -0.0749
     10 N1          7.4080    0.0740   21.6080 N.am      1 S61   -0.4681
     11 C9          6.7490    0.4230   20.4080 C.ar      1 S61   -0.0067
     12 C10         5.5300    1.0880   20.4530 C.ar      1 S61   -0.2250
     13 C11         4.9110    1.4320   19.2420 C.ar      1 S61    0.0523
     14 C12         5.5500    1.0600   18.0370 C.ar      1 S61    0.3092
     15 N2          6.7250    0.4090   17.9960 N.ar      1 S61   -0.6150
     16 C13         7.3230    0.1000   19.1620 C.ar      1 S61    0.3312
     17 H22         8.9780   -1.0110   23.4410 H         1 S61    0.0732
     18 H23         8.9810    0.6830   23.9420 H         1 S61    0.0732
     19 H3         11.2060    1.0290   22.7310 H         1 S61    0.0677
     20 H42        10.5430   -1.7270   21.7340 H         1 S61    0.0397
     21 H43        11.5900   -0.5050   21.0820 H         1 S61    0.0397
     22 H52        13.0250   -2.3490   21.6580 H         1 S61    0.0417
     23 H53        12.2090   -2.6570   23.1840 H         1 S61    0.0417
     24 H62        14.3780   -1.6370   23.6420 H         1 S61    0.0427
     25 H63        14.1070   -0.3360   22.4950 H         1 S61    0.0427
     26 H72        13.4550   -0.3800   25.3110 H         1 S61    0.0417
     27 H73        13.2420    0.9450   24.1800 H         1 S61    0.0417
     28 H82        11.0560    0.4320   25.1900 H         1 S61    0.0397
     29 H83        11.1740   -1.2720   24.7990 H         1 S61    0.0397
     30 H1          6.8490   -0.3720   22.3390 H         1 S61    0.3175
     31 H10         5.0580    1.3400   21.4150 H         1 S61    0.1320
     32 N3          3.6790    2.0670   19.2300 N.pl3     1 S61   -0.8142
     33 H12         5.1220    1.3100   17.0580 H         1 S61    0.0221
     34 F1          8.3946   -0.4871   19.0684 F         1 S61    0.0631
     35 H31         3.4330    2.6200   20.0380 H         1 S61    0.3928
     36 H32         3.3790    2.4670   18.3470 H         1 S61    0.3928
@<TRIPOS>BOND
     1    1    2 2
     2    2    3 1
     3    2   10 am
     4    3    4 1
     5    3   17 1
     6    3   18 1
     7    4    5 1
     8    4    9 1
     9    4   19 1
    10    5    6 1
    11    5   20 1
    12    5   21 1
    13    6    7 1
    14    6   22 1
    15    6   23 1
    16    7    8 1
    17    7   24 1
    18    7   25 1
    19    8    9 1
    20    8   26 1
    21    8   27 1
    22    9   28 1
    23    9   29 1
    24   10   11 1
    25   10   30 1
    26   11   12 ar
    27   11   16 ar
    28   12   13 ar
    29   12   31 1
    30   13   14 ar
    31   13   32 1
    32   14   15 ar
    33   14   33 1
    34   15   16 ar
    35   16   34 1
    36   32   35 1
    37   32   36 1
@<TRIPOS>SUBSTRUCTURE
     1 S61     1 RESIDUE           4 A     S61     0 ROOT
