@<TRIPOS>MOLECULE
SPE_0066
38 40 1 0 0
SMALL
NO_CHARGES


@<TRIPOS>ATOM
      1 O1          9.3040    1.1890   20.9970 O.2       1 S66   -0.5851
      2 C1          8.7240    0.4650   21.8150 C.2       1 S66    0.6641
      3 C2          9.3290    0.0160   23.1280 C.3       1 S66   -0.1534
      4 C3         10.8580    0.0080   23.0410 C.3       1 S66   -0.0617
      5 C4         11.3280   -1.0400   22.0280 C.3       1 S66   -0.0759
      6 C5         12.5310   -1.8430   22.5150 C.3       1 S66   -0.0749
      7 C6         13.5650   -0.9790   23.2180 C.3       1 S66   -0.0774
      8 C7         12.9660   -0.1280   24.3350 C.3       1 S66   -0.0749
      9 C8         11.4520   -0.2640   24.4220 C.3       1 S66   -0.0759
     10 N1          7.4110    0.0650   21.5730 N.am      1 S66   -0.4611
     11 C9          6.7670    0.4090   20.3650 C.ar      1 S66    0.0023
     12 C10         5.5200    1.0600   20.3860 C.ar      1 S66   -0.1198
     13 C11         4.9440    1.4330   19.1380 C.ar      1 S66   -0.1455
     14 C12         5.5940    1.1270   17.9360 C.ar      1 S66    0.3632
     15 N2          6.7680    0.4900   17.9310 N.ar      1 S66   -0.6290
     16 C13         7.3390    0.1400   19.1250 C.ar      1 S66    0.3332
     17 H22         8.9550   -0.9870   23.4370 H         1 S66    0.0727
     18 H23         8.9760    0.7110   23.9220 H         1 S66    0.0727
     19 H3         11.2080    1.0210   22.7090 H         1 S66    0.0677
     20 H42        10.5180   -1.7510   21.7570 H         1 S66    0.0399
     21 H43        11.5520   -0.5380   21.0680 H         1 S66    0.0399
     22 H52        13.0070   -2.3590   21.6550 H         1 S66    0.0412
     23 H53        12.2020   -2.6620   23.1890 H         1 S66    0.0412
     24 H62        14.3700   -1.6290   23.6200 H         1 S66    0.0422
     25 H63        14.0800   -0.3340   22.4800 H         1 S66    0.0422
     26 H72        13.4390   -0.3950   25.3020 H         1 S66    0.0412
     27 H73        13.2360    0.9390   24.1830 H         1 S66    0.0412
     28 H82        11.0450    0.4420   25.1770 H         1 S66    0.0399
     29 H83        11.1540   -1.2650   24.7960 H         1 S66    0.0399
     30 H1          6.8520   -0.4150   22.2800 H         1 S66    0.3205
     31 C15         4.6280    1.4900   21.4130 C.ar      1 S66   -0.1972
     32 N3          3.7340    2.0680   19.4030 N.ar      1 S66   -0.1814
     33 H12         5.1870    1.4230   16.9640 H         1 S66    0.0211
     34 F1          8.4156   -0.4351   19.0147 F         1 S66    0.0611
     35 C14         3.5610    2.1170   20.7940 C.ar      1 S66   -0.0981
     36 H14         2.6800    2.5850   21.2480 H         1 S66    0.1680
     37 H15         4.7710    1.3400   22.4800 H         1 S66    0.1520
     38 HN3         3.2050    2.5820   18.7060 H         1 S66    0.3037
@<TRIPOS>BOND
     1    1    2 2
     2    2    3 1
     3    2   10 am
     4    3    4 1
     5    3   17 1
     6    3   18 1
     7    4    5 1
     8    4    9 1
     9    4   19 1
    10    5    6 1
    11    5   20 1
    12    5   21 1
    13    6    7 1
    14    6   22 1
    15    6   23 1
    16    7    8 1
    17    7   24 1
    18    7   25 1
    19    8    9 1
    20    8   26 1
    21    8   27 1
    22    9   28 1
    23    9   29 1
    24   10   11 1
    25   10   30 1
    26   11   12 ar
    27   11   16 ar
    28   12   13 ar
    29   12   31 ar
    30   13   14 ar
    31   13   32 ar
    32   14   15 ar
    33   14   33 1
    34   15   16 ar
    35   16   34 1
    36   31   35 ar
    37   31   37 1
    38   32   35 ar
    39   32   38 1
    40   35   36 1
@<TRIPOS>SUBSTRUCTURE
     1 S66     1 RESIDUE           4 A     S66     0 ROOT
