@<TRIPOS>MOLECULE
SPE_0069
37 39 1 0 0
SMALL
NO_CHARGES


@<TRIPOS>ATOM
      1 O1          9.3260    1.1650   20.9780 O.2       1 S69   -0.5871
      2 C1          8.7300    0.5060   21.8320 C.2       1 S69    0.6641
      3 C2          9.3310    0.0520   23.1410 C.3       1 S69   -0.1524
      4 C3         10.8610    0.0240   23.0510 C.3       1 S69   -0.0617
      5 C4         11.3170   -1.0290   22.0360 C.3       1 S69   -0.0759
      6 C5         12.5180   -1.8370   22.5150 C.3       1 S69   -0.0749
      7 C6         13.5590   -0.9790   23.2130 C.3       1 S69   -0.0774
      8 C7         12.9700   -0.1330   24.3390 C.3       1 S69   -0.0749
      9 C8         11.4540   -0.2570   24.4310 C.3       1 S69   -0.0759
     10 N1          7.3870    0.1650   21.6230 N.am      1 S69   -0.4571
     11 C9          6.7530    0.4880   20.4100 C.ar      1 S69    0.0223
     12 C10         5.5280    1.1760   20.3820 C.ar      1 S69    0.0324
     13 C11         4.9440    1.4920   19.1230 C.ar      1 S69   -0.1685
     14 C12         5.5840    1.1120   17.9340 C.ar      1 S69    0.3682
     15 N2          6.7450    0.4520   17.9700 N.ar      1 S69   -0.6260
     16 C13         7.3100    0.1430   19.1720 C.ar      1 S69    0.3352
     17 H22         8.9430   -0.9470   23.4470 H         1 S69    0.0742
     18 H23         8.9870    0.7500   23.9370 H         1 S69    0.0742
     19 H3         11.2200    1.0340   22.7200 H         1 S69    0.0657
     20 H42        10.5000   -1.7340   21.7730 H         1 S69    0.0417
     21 H43        11.5370   -0.5300   21.0730 H         1 S69    0.0417
     22 H52        12.9870   -2.3550   21.6530 H         1 S69    0.0410
     23 H53        12.1890   -2.6560   23.1910 H         1 S69    0.0410
     24 H62        14.3660   -1.6330   23.6080 H         1 S69    0.0412
     25 H63        14.0710   -0.3320   22.4750 H         1 S69    0.0412
     26 H72        13.4430   -0.4080   25.3020 H         1 S69    0.0410
     27 H73        13.2460    0.9340   24.1920 H         1 S69    0.0410
     28 H82        11.0540    0.4500   25.1880 H         1 S69    0.0417
     29 H83        11.1490   -1.2570   24.8000 H         1 S69    0.0417
     30 H1          6.7960   -0.1710   22.3850 H         1 S69    0.3375
     31 N7          4.7120    1.6570   21.4190 N.ar      1 S69   -0.5791
     32 N3          3.7520    2.1590   19.4050 N.ar      1 S69   -0.2773
     33 H12         5.1830    1.3690   16.9490 H         1 S69    0.0251
     34 F1          8.3675   -0.4710   19.0907 F         1 S69    0.0651
     35 C14         3.6650    2.2520   20.8030 C.ar      1 S69    0.4257
     36 H14         2.8180    2.7370   21.3290 H         1 S69    0.0718
     37 HN3         3.2040    2.6660   18.7110 H         1 S69    0.3107
@<TRIPOS>BOND
     1    1    2 2
     2    2    3 1
     3    2   10 am
     4    3    4 1
     5    3   17 1
     6    3   18 1
     7    4    5 1
     8    4    9 1
     9    4   19 1
    10    5    6 1
    11    5   20 1
    12    5   21 1
    13    6    7 1
    14    6   22 1
    15    6   23 1
    16    7    8 1
    17    7   24 1
    18    7   25 1
    19    8    9 1
    20    8   26 1
    21    8   27 1
    22    9   28 1
    23    9   29 1
    24   10   11 1
    25   10   30 1
    26   11   12 ar
    27   11   16 ar
    28   12   13 ar
    29   12   31 ar
    30   13   14 ar
    31   13   32 ar
    32   14   15 ar
    33   14   33 1
    34   15   16 ar
    35   16   34 1
    36   31   35 ar
    37   32   35 ar
    38   32   37 1
    39   35   36 1
@<TRIPOS>SUBSTRUCTURE
     1 S69     1 RESIDUE           4 A     S69     0 ROOT
