@<TRIPOS>MOLECULE
SPE_0064
38 40 1 0 0
SMALL
NO_CHARGES


@<TRIPOS>ATOM
      1 O1          9.3720    1.1430   20.9770 O.2       1 S64   -0.5751
      2 C1          8.8110    0.4330   21.8100 C.2       1 S64    0.6671
      3 C2          9.4160   -0.0200   23.1190 C.3       1 S64   -0.1534
      4 C3         10.9430   -0.0020   23.0370 C.3       1 S64   -0.0627
      5 C4         11.4340   -1.0380   22.0210 C.3       1 S64   -0.0749
      6 C5         12.6190   -1.8500   22.5290 C.3       1 S64   -0.0754
      7 C6         13.6490   -0.9930   23.2450 C.3       1 S64   -0.0774
      8 C7         13.0400   -0.1270   24.3440 C.3       1 S64   -0.0754
      9 C8         11.5270   -0.2700   24.4230 C.3       1 S64   -0.0749
     10 N1          7.4840    0.0490   21.6060 N.am      1 S64   -0.4691
     11 C9          6.7840    0.4250   20.4420 C.ar      1 S64   -0.0047
     12 C10         5.5460    1.1090   20.5680 C.ar      1 S64   -0.2836
     13 C11         4.7980    1.3610   19.4070 C.ar      1 S64    0.3133
     14 C12         5.3610    0.9970   18.1390 C.ar      1 S64    0.3369
     15 N2          6.5560    0.4360   18.0290 N.ar      1 S64   -0.6210
     16 C13         7.2580    0.1350   19.1710 C.ar      1 S64    0.3492
     17 H22         9.0600   -1.0320   23.4190 H         1 S64    0.0757
     18 H23         9.0480    0.6640   23.9190 H         1 S64    0.0757
     19 H3         11.2780    1.0160   22.7110 H         1 S64    0.0677
     20 H42        10.6260   -1.7410   21.7170 H         1 S64    0.0392
     21 H43        11.6880   -0.5250   21.0760 H         1 S64    0.0392
     22 H52        13.1040   -2.3750   21.6800 H         1 S64    0.0432
     23 H53        12.2710   -2.6660   23.1980 H         1 S64    0.0432
     24 H62        14.4390   -1.6500   23.6670 H         1 S64    0.0437
     25 H63        14.1780   -0.3570   22.5090 H         1 S64    0.0437
     26 H72        13.5070   -0.3750   25.3180 H         1 S64    0.0432
     27 H73        13.3030    0.9400   24.1740 H         1 S64    0.0432
     28 H82        11.1090    0.4340   25.1730 H         1 S64    0.0392
     29 H83        11.2310   -1.2730   24.7940 H         1 S64    0.0392
     30 H1          6.9660   -0.5050   22.2960 H         1 S64    0.3195
     31 C16         4.9900    1.5710   21.8080 C.ar      1 S64    0.4482
     32 N3          3.5370    1.9330   19.4600 N.ar      1 S64   -0.6610
     33 H12         4.8140    1.2040   17.2100 H         1 S64    0.0461
     34 F1          8.3302   -0.4256   18.9764 F         1 S64    0.0691
     35 C14         3.1060    2.3060   20.6650 C.ar      1 S64    0.6299
     36 N5          3.8130    2.1750   21.8620 N.ar      1 S64   -0.6870
     37 H14         2.0900    2.7590   20.7400 H         1 S64    0.0611
     38 H16         5.5170    1.4330   22.7720 H         1 S64    0.0191
@<TRIPOS>BOND
     1    1    2 2
     2    2    3 1
     3    2   10 am
     4    3    4 1
     5    3   17 1
     6    3   18 1
     7    4    5 1
     8    4    9 1
     9    4   19 1
    10    5    6 1
    11    5   20 1
    12    5   21 1
    13    6    7 1
    14    6   22 1
    15    6   23 1
    16    7    8 1
    17    7   24 1
    18    7   25 1
    19    8    9 1
    20    8   26 1
    21    8   27 1
    22    9   28 1
    23    9   29 1
    24   10   11 1
    25   10   30 1
    26   11   12 ar
    27   11   16 ar
    28   12   13 ar
    29   12   31 ar
    30   13   14 ar
    31   13   32 ar
    32   14   15 ar
    33   14   33 1
    34   15   16 ar
    35   16   34 1
    36   31   36 ar
    37   31   38 1
    38   32   35 ar
    39   35   36 ar
    40   35   37 1
@<TRIPOS>SUBSTRUCTURE
     1 S64     1 RESIDUE           4 A     S64     0 ROOT
