@<TRIPOS>MOLECULE
SPE_0054
31 33 1 0 0
SMALL
NO_CHARGES


@<TRIPOS>ATOM
      1 O1          8.7460    0.9600   20.7160 O.2       1 S54   -0.6021
      2 C1          8.2450    0.0160   21.3490 C.2       1 S54    0.7671
      3 N1          8.9640   -0.6900   22.3100 N.pl3     1 S54   -0.4611
      4 C2         10.2830   -0.2420   22.6210 C.ar      1 S54    0.0586
      5 C3         10.4360    0.9120   23.3920 C.ar      1 S54   -0.1560
      6 C4         11.7170    1.3740   23.6700 C.ar      1 S54   -0.1085
      7 C5         12.8260    0.6920   23.1860 C.ar      1 S54   -0.1490
      8 C6         12.6600   -0.4680   22.4380 C.ar      1 S54   -0.1085
      9 C7         11.3900   -0.9470   22.1450 C.ar      1 S54   -0.1560
     10 N2          6.9140   -0.3890   21.1280 N.pl3     1 S54   -0.4521
     11 C8          6.2430    0.1830   20.0220 C.ar      1 S54   -0.0077
     12 C9          5.0860    0.9600   20.1900 C.ar      1 S54   -0.1138
     13 C10         4.5160    1.5560   19.0310 C.ar      1 S54   -0.1495
     14 C11         5.0850    1.3380   17.7620 C.ar      1 S54    0.3712
     15 N3          6.1670    0.5680   17.6190 N.ar      1 S54   -0.6330
     16 C12         6.7360    0.0090   18.7320 C.ar      1 S54    0.3532
     17 H1          8.6400   -1.5650   22.7140 H         1 S54    0.3055
     18 H3          9.5620    1.4540   23.7710 H         1 S54    0.1485
     19 H4         11.8420    2.2870   24.2620 H         1 S54    0.1340
     20 H5         13.8300    1.0830   23.3700 H         1 S54    0.1330
     21 H6         13.5370   -1.0010   22.0580 H         1 S54    0.1340
     22 H7         11.2630   -1.8510   21.5400 H         1 S54    0.1485
     23 H2          6.3510   -0.8390   21.8490 H         1 S54    0.3105
     24 N4          3.4070    2.2940   19.4310 N.ar      1 S54   -0.1804
     25 H11         4.6870    1.8210   16.8630 H         1 S54    0.0231
     26 F1          7.7439   -0.6488   18.5012 F         1 S54    0.0591
     27 C14         4.2940    1.3590   21.3060 C.ar      1 S54   -0.2002
     28 H14         4.4670    1.0830   22.3400 H         1 S54    0.1520
     29 C13         3.2930    2.1860   20.8210 C.ar      1 S54   -0.0941
     30 H13         2.4970    2.7000   21.3750 H         1 S54    0.1690
     31 HN4         2.9120    2.9480   18.8340 H         1 S54    0.3047
@<TRIPOS>BOND
     1    1    2 2
     2    2    3 2
     3    2   10 2
     4    3    4 1
     5    3   17 1
     6    4    5 ar
     7    4    9 ar
     8    5    6 ar
     9    5   18 1
    10    6    7 ar
    11    6   19 1
    12    7    8 ar
    13    7   20 1
    14    8    9 ar
    15    8   21 1
    16    9   22 1
    17   10   11 1
    18   10   23 1
    19   11   12 ar
    20   11   16 ar
    21   12   13 ar
    22   12   27 ar
    23   13   14 ar
    24   13   24 ar
    25   14   15 ar
    26   14   25 1
    27   15   16 ar
    28   16   26 1
    29   24   29 ar
    30   24   31 1
    31   27   28 1
    32   27   29 ar
    33   29   30 1
@<TRIPOS>SUBSTRUCTURE
     1 S54     1 RESIDUE           4 A     S54     0 ROOT
