@<TRIPOS>MOLECULE
SPE_0062
39 40 1 0 0
SMALL
NO_CHARGES


@<TRIPOS>ATOM
      1 O1          9.3120    1.2040   21.0100 O.2       1 S62   -0.5821
      2 C1          8.7470    0.4730   21.8290 C.2       1 S62    0.6661
      3 C2          9.3560    0.0360   23.1420 C.3       1 S62   -0.1534
      4 C3         10.8820    0.0050   23.0460 C.3       1 S62   -0.0617
      5 C4         11.3300   -1.0590   22.0390 C.3       1 S62   -0.0749
      6 C5         12.5380   -1.8580   22.5180 C.3       1 S62   -0.0749
      7 C6         13.5790   -0.9930   23.2070 C.3       1 S62   -0.0774
      8 C7         12.9940   -0.1460   24.3340 C.3       1 S62   -0.0749
      9 C8         11.4800   -0.2650   24.4270 C.3       1 S62   -0.0749
     10 N1          7.4380    0.0560   21.5930 N.am      1 S62   -0.4681
     11 C9          6.7690    0.4130   20.3980 C.ar      1 S62   -0.0087
     12 C10         5.5270    1.0430   20.4710 C.ar      1 S62   -0.2200
     13 C11         4.8930    1.4070   19.2760 C.ar      1 S62    0.0573
     14 C12         5.5430    1.0900   18.0560 C.ar      1 S62    0.3122
     15 N2          6.7350    0.4720   17.9910 N.ar      1 S62   -0.6160
     16 C13         7.3450    0.1370   19.1440 C.ar      1 S62    0.3302
     17 H22         8.9730   -0.9560   23.4760 H         1 S62    0.0732
     18 H23         9.0180    0.7530   23.9250 H         1 S62    0.0732
     19 H3         11.2460    1.0080   22.7040 H         1 S62    0.0677
     20 H42        10.5120   -1.7690   21.7940 H         1 S62    0.0395
     21 H43        11.5360   -0.5730   21.0670 H         1 S62    0.0395
     22 H52        13.0040   -2.3790   21.6550 H         1 S62    0.0415
     23 H53        12.2140   -2.6750   23.1970 H         1 S62    0.0415
     24 H62        14.3920   -1.6420   23.5970 H         1 S62    0.0427
     25 H63        14.0810   -0.3440   22.4620 H         1 S62    0.0427
     26 H72        13.4660   -0.4260   25.2970 H         1 S62    0.0415
     27 H73        13.2750    0.9200   24.1900 H         1 S62    0.0415
     28 H82        11.0810    0.4480   25.1780 H         1 S62    0.0395
     29 H83        11.1720   -1.2630   24.8030 H         1 S62    0.0395
     30 H1          6.8940   -0.4330   22.3070 H         1 S62    0.3165
     31 H10         5.0750    1.2470   21.4500 H         1 S62    0.1340
     32 N3          3.6300    1.9890   19.2410 N.pl3     1 S62   -0.7276
     33 H12         5.1130    1.3620   17.0860 H         1 S62    0.0211
     34 F1          8.4251   -0.4304   19.0292 F         1 S62    0.0621
     35 C14         3.0760    2.5890   20.4580 C.3       1 S62    0.1751
     36 HN3         3.3890    2.4540   18.3640 H         1 S62    0.4028
     37 H141        2.1460    3.1350   20.2150 H         1 S62    0.0377
     38 H142        2.8290    1.8110   21.2050 H         1 S62    0.0377
     39 H143        3.7440    3.3220   20.9480 H         1 S62    0.0377
@<TRIPOS>BOND
     1    1    2 2
     2    2    3 1
     3    2   10 am
     4    3    4 1
     5    3   17 1
     6    3   18 1
     7    4    5 1
     8    4    9 1
     9    4   19 1
    10    5    6 1
    11    5   20 1
    12    5   21 1
    13    6    7 1
    14    6   22 1
    15    6   23 1
    16    7    8 1
    17    7   24 1
    18    7   25 1
    19    8    9 1
    20    8   26 1
    21    8   27 1
    22    9   28 1
    23    9   29 1
    24   10   11 1
    25   10   30 1
    26   11   12 ar
    27   11   16 ar
    28   12   13 ar
    29   12   31 1
    30   13   14 ar
    31   13   32 1
    32   14   15 ar
    33   14   33 1
    34   15   16 ar
    35   16   34 1
    36   32   35 1
    37   32   36 1
    38   35   37 1
    39   35   38 1
    40   35   39 1
@<TRIPOS>SUBSTRUCTURE
     1 S62     1 RESIDUE           4 A     S62     0 ROOT
