@<TRIPOS>MOLECULE
Mpro-x0678_0.mol
42 43 1 0 2
SMALL
AMBER ff14SB


@<TRIPOS>ATOM
      1 O1          9.3680    1.1120   21.0320 O.2       1 S39   -0.5791
      2 C1          8.8120    0.3220   21.7270 C.2       1 S39    0.6661
      3 C2          9.3520   -0.1440   23.0660 C.3       1 S39   -0.1494
      4 C3         10.8670   -0.0690   23.1260 C.3       1 S39   -0.0567
      5 C4         11.5080   -1.0370   22.1340 C.3       1 S39   -0.0744
      6 C5         12.7630   -1.7020   22.6880 C.3       1 S39   -0.0729
      7 C6         13.5520   -0.8480   23.6720 C.3       1 S39   -0.0774
      8 C7         12.7110   -0.1420   24.7310 C.3       1 S39   -0.0729
      9 C8         11.2210   -0.3910   24.5640 C.3       1 S39   -0.0744
     10 N1          7.5600   -0.2470   21.3550 N.am      1 S39   -0.4741
     11 C9          6.9510    0.1800   20.1360 C.ar      1 S39   -0.0107
     12 C10         5.7070    0.7820   20.2730 C.ar      1 S39   -0.2190
     13 C11         5.0950    1.2170   19.1050 C.ar      1 S39    0.0703
     14 C12         5.7610    1.0320   17.9010 C.ar      1 S39    0.3142
     15 N2          6.9560    0.4630   17.8400 N.ar      1 S39   -0.6190
     16 C13         7.5800    0.0350   18.9160 C.ar      1 S39    0.3332
     17 H22         9.0443   -1.1769   23.2291 H         1 S39    0.0642
     18 H23         8.9335    0.4806   23.8551 H         1 S39    0.0642
     19 H3         11.1867    0.9472   22.8953 H         1 S39    0.0757
     20 H42        10.7833   -1.8124   21.8858 H         1 S39    0.0420
     21 H43        11.7679   -0.4924   21.2263 H         1 S39    0.0420
     22 H52        13.4162   -1.9462   21.8502 H         1 S39    0.0389
     23 H53        12.4748   -2.6282   23.1852 H         1 S39    0.0389
     24 H62        14.2665   -1.4936   24.1828 H         1 S39    0.0417
     25 H63        14.1054   -0.0951   23.1108 H         1 S39    0.0417
     26 H72        13.0158   -0.5015   25.7138 H         1 S39    0.0389
     27 H73        12.8984    0.9302   24.6735 H         1 S39    0.0389
     28 H82        10.6577    0.2528   25.2395 H         1 S39    0.0420
     29 H83        10.9950   -1.4362   24.7751 H         1 S39    0.0420
     30 H1          7.1128   -0.9375   21.9409 H         1 S39    0.3135
     31 H10         5.2395    0.9055   21.2387 H         1 S39    0.1340
     32 N3          3.7495    1.7126   19.3778 N.pl3     1 S39   -0.6480
     33 H12         5.2908    1.3619   16.9864 H         1 S39    0.0231
     34 H13         8.5581   -0.4176   18.8467 H         1 S39    0.0601
     35 C14         3.1562    1.7796   20.7538 C.3       1 S39    0.1826
     36 C15         3.1353    2.8928   18.7355 C.3       1 S39    0.1826
     37 H141        2.1121    2.1082   20.7204 H         1 S39    0.0395
     38 H142        3.1867    0.8094   21.2642 H         1 S39    0.0395
     39 HC141       3.6926    2.5015   21.3780 H         1 S39    0.0395
     40 H151        3.7343    3.2184   17.9083 H         1 S39    0.0395
     41 H152        2.1331    2.6846   18.3703 H         1 S39    0.0395
     42 HC151       3.0106    3.7288   19.4328 H         1 S39    0.0395
@<TRIPOS>BOND
     1    1    2 2
     2    2    3 1
     3    2   10 am
     4    4    3 1
     5   10   11 1
     6    4    5 1
     7    4    9 1
     8    5    6 1
     9    9    8 1
    10    6    7 1
    11    7    8 1
    12   11   12 ar
    13   11   16 ar
    14   12   13 ar
    15   16   15 ar
    16   13   14 ar
    17   14   15 ar
    18   17    3 1
    19   18    3 1
    20   19    4 1
    21   20    5 1
    22   21    5 1
    23   22    6 1
    24   23    6 1
    25   24    7 1
    26   25    7 1
    27   26    8 1
    28   27    8 1
    29   28    9 1
    30   29    9 1
    31   30   10 1
    32   31   12 1
    33   32   13 1
    34   33   14 1
    35   34   16 1
    36   35   32 1
    37   36   32 1
    38   37   35 1
    39   38   35 1
    40   39   35 1
    41   40   36 1
    42   41   36 1
    43   42   36 1
@<TRIPOS>SUBSTRUCTURE
     1 S39     1 RESIDUE           4 A     S39     0 ROOT
@<TRIPOS>SET
ANCHOR          STATIC     ATOMS    <user>   **** Anchor Atom Set
9 37 32 36 35 38 41 39 42 40
RIGID           STATIC     BONDS    <user>   **** Rigid Bond Set
8 38 39 41 43 42 40 36 37
