@<TRIPOS>MOLECULE
Mpro-x0434_0.mol
32 33 1 0 2
SMALL
AMBER ff14SB


@<TRIPOS>ATOM
      1 O1          9.0980    0.7170   20.8630 O.2       1 S26   -0.6061
      2 C1          8.5440   -0.2000   21.3730 C.2       1 S26    0.6531
      3 N1          9.1810   -0.9260   22.4450 N.pl3     1 S26   -0.4071
      4 C2         10.4660   -0.4470   22.8510 C.ar      1 S26    0.0696
      5 C3         10.5000    0.3870   23.9490 C.ar      1 S26   -0.1615
      6 C4         11.7040    0.9000   24.3650 C.ar      1 S26   -0.1065
      7 C5         12.8650    0.5840   23.6730 C.ar      1 S26   -0.1520
      8 C6         12.8230   -0.2500   22.5690 C.ar      1 S26   -0.1065
      9 C7         11.6120   -0.7630   22.1470 C.ar      1 S26   -0.1615
     10 N2          7.2370   -0.6260   20.9410 N.pl3     1 S26   -0.4111
     11 C8          6.5590    0.0580   19.8740 C.ar      1 S26   -0.0017
     12 C9          5.3530    0.6830   20.1520 C.ar      1 S26   -0.2160
     13 C10         4.7260    1.3390   19.1050 C.ar      1 S26    0.0563
     14 C11         5.3210    1.3050   17.8490 C.ar      1 S26    0.3162
     15 N3          6.4720    0.7100   17.6440 N.ar      1 S26   -0.6160
     16 C12         7.1030    0.0840   18.6020 C.ar      1 S26    0.3422
     17 H1          8.7452   -1.7251   22.8827 H         1 S26    0.3105
     18 H3          9.5900    0.6338   24.4757 H         1 S26    0.1495
     19 H4         11.7474    1.5476   25.2282 H         1 S26    0.1340
     20 H5         13.8100    0.9927   23.9990 H         1 S26    0.1340
     21 H6         13.7317   -0.4981   22.0408 H         1 S26    0.1340
     22 H7         11.5616   -1.4026   21.2783 H         1 S26    0.1495
     23 H2          6.7930   -1.4129   21.3924 H         1 S26    0.3135
     24 H9          4.9211    0.6595   21.1416 H         1 S26    0.1350
     25 N4          3.5892    2.1168   19.3029 N.3       1 S26   -0.7266
     26 H11         4.8215    1.7819   17.0186 H         1 S26    0.0221
     27 H12         8.0426   -0.4096   18.4023 H         1 S26    0.0611
     28 C13         3.3992    2.8475   20.5661 C.3       1 S26    0.1751
     29 H42         3.4728    2.7670   18.5092 H         1 S26    0.4028
     30 H131        2.8628    3.7861   20.3846 H         1 S26    0.0384
     31 H132        2.8206    2.2417   21.2740 H         1 S26    0.0384
     32 HC131       4.3688    3.0900   21.0099 H         1 S26    0.0384
@<TRIPOS>BOND
     1    1    2 2
     2    2    3 2
     3    2   10 2
     4    3    4 1
     5   10   11 1
     6    4    5 ar
     7    4    9 ar
     8    5    6 ar
     9    9    8 ar
    10    6    7 ar
    11    7    8 ar
    12   11   12 ar
    13   11   16 ar
    14   12   13 ar
    15   16   15 ar
    16   13   14 ar
    17   14   15 ar
    18   17    3 1
    19   18    5 1
    20   19    6 1
    21   20    7 1
    22   21    8 1
    23   22    9 1
    24   23   10 1
    25   24   12 1
    26   25   13 1
    27   26   14 1
    28   27   16 1
    29   28   25 1
    30   29   25 1
    31   30   28 1
    32   31   28 1
    33   32   28 1
@<TRIPOS>SUBSTRUCTURE
     1 S26     1 RESIDUE           4 A     S26     0 ROOT
@<TRIPOS>SET
ANCHOR          STATIC     ATOMS    <user>   **** Anchor Atom Set
14 30 28 31 25 32 29
RIGID           STATIC     BONDS    <user>   **** Rigid Bond Set
12 33 29 32 31 30
