@<TRIPOS>MOLECULE
S79
   34    35     1     0     1 
SMALL
USER_CHARGES
@<TRIPOS>ATOM
  1 O1      9.262000    1.211000   20.978000 o     1 S79    -0.5881 ****
  2 C1      8.699000    0.501000   21.820000 c     1 S79     0.6691 ****
  3 C2      9.319000    0.094000   23.138000 c3    1 S79    -0.1524 ****
  4 C3     10.845000    0.029000   23.026000 c3    1 S79    -0.0617 ****
  5 C4     11.262000   -1.066000   22.040000 c3    1 S79    -0.0759 ****
  6 C5     12.478000   -1.857000   22.510000 c3    1 S79    -0.0749 ****
  7 C6     13.530000   -0.981000   23.171000 c3    1 S79    -0.0774 ****
  8 C7     12.965000   -0.132000   24.308000 c3    1 S79    -0.0749 ****
  9 C8     11.447000   -0.229000   24.407000 c3    1 S79    -0.0759 ****
 10 N1      7.393000    0.074000   21.597000 ns    1 S79    -0.4671 ****
 11 C9      6.706000    0.393000   20.404000 ca    1 S79    -0.0227 ****
 12 C10     5.419000    0.938000   20.458000 ca    1 S79    -0.1210 ****
 13 C11     4.779000    1.245000   19.266000 ca    1 S79    -0.2163 ****
 14 C12     5.440000    0.995000   18.060000 ca    1 S79     0.3732 ****
 15 N2      6.676000    0.456000   17.987000 nb    1 S79    -0.6300 ****
 16 C13     7.297000    0.155000   19.147000 ca    1 S79     0.4343 ****
 17 H22     8.921000   -0.879000   23.508000 hc    1 S79     0.0752 ****
 18 H23     9.005000    0.839000   23.904000 hc    1 S79     0.0752 ****
 19 H3     11.226000    1.018000   22.660000 hc    1 S79     0.0657 ****
 20 H42    10.434000   -1.778000   21.835000 hc    1 S79     0.0407 ****
 21 H43    11.448000   -0.610000   21.049000 hc    1 S79     0.0407 ****
 22 H52    12.932000   -2.390000   21.649000 hc    1 S79     0.0425 ****
 23 H53    12.166000   -2.664000   23.207000 hc    1 S79     0.0425 ****
 24 H62    14.355000   -1.623000   23.549000 hc    1 S79     0.0422 ****
 25 H63    14.012000   -0.334000   22.411000 hc    1 S79     0.0422 ****
 26 H72    13.433000   -0.428000   25.269000 hc    1 S79     0.0425 ****
 27 H73    13.262000    0.929000   24.168000 hc    1 S79     0.0425 ****
 28 H82    11.063000    0.499000   25.151000 hc    1 S79     0.0407 ****
 29 H83    11.129000   -1.216000   24.800000 hc    1 S79     0.0407 ****
 30 H1      6.851000   -0.389000   22.331000 hn    1 S79     0.3315 ****
 31 H10     4.918000    1.126000   21.418000 ha    1 S79     0.1850 ****
 32 H11     3.787000    1.703000   19.269000 ha    1 S79     0.1510 ****
 33 H12     4.980000    1.248000   17.100000 h4    1 S79     0.0301 ****
 34 Cl1     8.685000   -0.471000   19.008000 cl    1 S79    -0.1680 ****
@<TRIPOS>BOND
    1     1     2 1
    2     2     3 1
    3     2    10 1
    4     3     4 1
    5     3    17 1
    6     3    18 1
    7     4     5 1
    8     4     9 1
    9     4    19 1
   10     5     6 1
   11     5    20 1
   12     5    21 1
   13     6     7 1
   14     6    22 1
   15     6    23 1
   16     7     8 1
   17     7    24 1
   18     7    25 1
   19     8     9 1
   20     8    26 1
   21     8    27 1
   22     9    28 1
   23     9    29 1
   24    10    11 1
   25    10    30 1
   26    11    12 1
   27    11    16 1
   28    12    13 1
   29    12    31 1
   30    13    14 1
   31    13    32 1
   32    14    15 1
   33    14    33 1
   34    15    16 1
   35    16    34 1
@<TRIPOS>SUBSTRUCTURE
      1  S79              1 ****               0 ****  **** 
