@<TRIPOS>MOLECULE
T06
   38    40     1     0     1 
SMALL
USER_CHARGES
@<TRIPOS>ATOM
  1 O1      9.372000    1.143000   20.977000 o     1 T06    -0.5751 ****
  2 C1      8.811000    0.433000   21.810000 c     1 T06     0.6581 ****
  3 C2      9.416000   -0.020000   23.119000 c3    1 T06    -0.1514 ****
  4 C3     10.943000   -0.002000   23.037000 c3    1 T06    -0.0627 ****
  5 C4     11.434000   -1.038000   22.021000 c3    1 T06    -0.0764 ****
  6 C5     12.619000   -1.850000   22.529000 c3    1 T06    -0.0749 ****
  7 C6     13.649000   -0.993000   23.245000 c3    1 T06    -0.0774 ****
  8 C7     13.040000   -0.127000   24.344000 c3    1 T06    -0.0749 ****
  9 C8     11.527000   -0.270000   24.423000 c3    1 T06    -0.0764 ****
 10 N1      7.484000    0.049000   21.606000 ns    1 T06    -0.4741 ****
 11 C9      6.784000    0.425000   20.442000 ca    1 T06     0.0033 ****
 12 C10     5.546000    1.109000   20.568000 ca    1 T06    -0.2426 ****
 13 C11     4.798000    1.361000   19.407000 ca    1 T06     0.3073 ****
 14 C12     5.361000    0.997000   18.139000 ca    1 T06     0.3679 ****
 15 N2      6.556000    0.436000   18.029000 nb    1 T06    -0.6210 ****
 16 C13     7.258000    0.135000   19.171000 ca    1 T06     0.4263 ****
 17 H22     9.060000   -1.032000   23.419000 hc    1 T06     0.0767 ****
 18 H23     9.048000    0.664000   23.919000 hc    1 T06     0.0767 ****
 19 H3     11.278000    1.016000   22.711000 hc    1 T06     0.0677 ****
 20 H42    10.626000   -1.741000   21.717000 hc    1 T06     0.0407 ****
 21 H43    11.688000   -0.525000   21.076000 hc    1 T06     0.0407 ****
 22 H52    13.104000   -2.375000   21.680000 hc    1 T06     0.0427 ****
 23 H53    12.271000   -2.666000   23.198000 hc    1 T06     0.0427 ****
 24 H62    14.439000   -1.650000   23.667000 hc    1 T06     0.0432 ****
 25 H63    14.178000   -0.357000   22.509000 hc    1 T06     0.0432 ****
 26 H72    13.507000   -0.375000   25.318000 hc    1 T06     0.0427 ****
 27 H73    13.303000    0.940000   24.174000 hc    1 T06     0.0427 ****
 28 H82    11.109000    0.434000   25.173000 hc    1 T06     0.0407 ****
 29 H83    11.231000   -1.273000   24.794000 hc    1 T06     0.0407 ****
 30 H1      6.966000   -0.505000   22.296000 hn    1 T06     0.3265 ****
 31 C16     4.990000    1.571000   21.808000 ca    1 T06     0.4832 ****
 32 N3      3.537000    1.933000   19.460000 nb    1 T06    -0.6710 ****
 33 H12     4.814000    1.204000   17.210000 h4    1 T06     0.0531 ****
 34 Cl1     8.596000   -0.564000   18.928000 cl    1 T06    -0.1510 ****
 35 C14     3.106000    2.306000   20.665000 ca    1 T06     0.6409 ****
 36 N5      3.813000    2.175000   21.862000 nb    1 T06    -0.6870 ****
 37 H14     2.090000    2.759000   20.740000 h5    1 T06     0.0611 ****
 38 H16     5.517000    1.433000   22.772000 h4    1 T06     0.0471 ****
@<TRIPOS>BOND
    1     1     2 1
    2     2     3 1
    3     2    10 1
    4     3     4 1
    5     3    17 1
    6     3    18 1
    7     4     5 1
    8     4     9 1
    9     4    19 1
   10     5     6 1
   11     5    20 1
   12     5    21 1
   13     6     7 1
   14     6    22 1
   15     6    23 1
   16     7     8 1
   17     7    24 1
   18     7    25 1
   19     8     9 1
   20     8    26 1
   21     8    27 1
   22     9    28 1
   23     9    29 1
   24    10    11 1
   25    10    30 1
   26    11    12 1
   27    11    16 1
   28    12    13 1
   29    12    31 1
   30    13    14 1
   31    13    32 1
   32    14    15 1
   33    14    33 1
   34    15    16 1
   35    16    34 1
   36    31    36 1
   37    31    38 1
   38    32    35 1
   39    35    36 1
   40    35    37 1
@<TRIPOS>SUBSTRUCTURE
      1  T06              1 ****               0 ****  **** 
