@<TRIPOS>MOLECULE
T05
   42    43     1     0     1 
SMALL
USER_CHARGES
@<TRIPOS>ATOM
  1 O1      9.223000    1.237000   20.999000 o     1 T05    -0.5911 ****
  2 C1      8.743000    0.405000   21.771000 c     1 T05     0.6701 ****
  3 C2      9.381000   -0.018000   23.079000 c3    1 T05    -0.1524 ****
  4 C3     10.908000   -0.032000   22.967000 c3    1 T05    -0.0617 ****
  5 C4     11.366000   -1.138000   22.011000 c3    1 T05    -0.0759 ****
  6 C5     12.577000   -1.905000   22.533000 c3    1 T05    -0.0749 ****
  7 C6     13.611000   -1.002000   23.186000 c3    1 T05    -0.0774 ****
  8 C7     13.022000   -0.109000   24.275000 c3    1 T05    -0.0749 ****
  9 C8     11.506000   -0.230000   24.360000 c3    1 T05    -0.0759 ****
 10 N1      7.496000   -0.148000   21.501000 ns    1 T05    -0.4671 ****
 11 C9      6.718000    0.308000   20.405000 ca    1 T05     0.0073 ****
 12 C10     5.478000    0.914000   20.665000 ca    1 T05    -0.1880 ****
 13 C11     4.723000    1.375000   19.592000 ca    1 T05     0.0603 ****
 14 C12     5.238000    1.179000   18.288000 ca    1 T05     0.3442 ****
 15 N2      6.425000    0.590000   18.032000 nb    1 T05    -0.6110 ****
 16 C13     7.160000    0.167000   19.079000 ca    1 T05     0.3983 ****
 17 H22     9.019000   -1.009000   23.438000 hc    1 T05     0.0747 ****
 18 H23     9.045000    0.705000   23.858000 hc    1 T05     0.0747 ****
 19 H3     11.259000    0.957000   22.576000 hc    1 T05     0.0657 ****
 20 H42    10.552000   -1.863000   21.794000 hc    1 T05     0.0407 ****
 21 H43    11.576000   -0.700000   21.016000 hc    1 T05     0.0407 ****
 22 H52    13.053000   -2.462000   21.699000 hc    1 T05     0.0417 ****
 23 H53    12.254000   -2.693000   23.246000 hc    1 T05     0.0417 ****
 24 H62    14.428000   -1.629000   23.604000 hc    1 T05     0.0422 ****
 25 H63    14.104000   -0.383000   22.410000 hc    1 T05     0.0422 ****
 26 H72    13.481000   -0.355000   25.254000 hc    1 T05     0.0417 ****
 27 H73    13.304000    0.951000   24.092000 hc    1 T05     0.0417 ****
 28 H82    11.102000    0.516000   25.076000 hc    1 T05     0.0407 ****
 29 H83    11.200000   -1.209000   24.782000 hc    1 T05     0.0407 ****
 30 H1      7.049000   -0.808000   22.133000 hn    1 T05     0.3315 ****
 31 H10     5.149000    1.012000   21.709000 ha    1 T05     0.1850 ****
 32 N3      3.418000    1.915000   19.753000 nh    1 T05    -0.6360 ****
 33 H12     4.694000    1.520000   17.396000 h4    1 T05     0.0331 ****
 34 Cl1     8.494000   -0.497000   18.738000 cl    1 T05    -0.1720 ****
 35 C14     2.951000    2.133000   21.147000 c3    1 T05     0.1721 ****
 36 C15     3.151000    3.117000   18.922000 c3    1 T05     0.1721 ****
 37 H141    1.913000    2.514000   21.131000 h1    1 T05     0.0425 ****
 38 H142    2.938000    1.178000   21.700000 h1    1 T05     0.0425 ****
 39 H143    3.544000    2.857000   21.737000 h1    1 T05     0.0425 ****
 40 H151    3.613000    3.050000   17.922000 h1    1 T05     0.0425 ****
 41 H152    2.061000    3.221000   18.765000 h1    1 T05     0.0425 ****
 42 H153    3.514000    4.059000   19.368000 h1    1 T05     0.0425 ****
@<TRIPOS>BOND
    1     1     2 1
    2     2     3 1
    3     2    10 1
    4     3     4 1
    5     3    17 1
    6     3    18 1
    7     4     5 1
    8     4     9 1
    9     4    19 1
   10     5     6 1
   11     5    20 1
   12     5    21 1
   13     6     7 1
   14     6    22 1
   15     6    23 1
   16     7     8 1
   17     7    24 1
   18     7    25 1
   19     8     9 1
   20     8    26 1
   21     8    27 1
   22     9    28 1
   23     9    29 1
   24    10    11 1
   25    10    30 1
   26    11    12 1
   27    11    16 1
   28    12    13 1
   29    12    31 1
   30    13    14 1
   31    13    32 1
   32    14    15 1
   33    14    33 1
   34    15    16 1
   35    16    34 1
   36    32    35 1
   37    32    36 1
   38    35    37 1
   39    35    38 1
   40    35    39 1
   41    36    40 1
   42    36    41 1
   43    36    42 1
@<TRIPOS>SUBSTRUCTURE
      1  T05              1 ****               0 ****  **** 
