@<TRIPOS>MOLECULE
T07
   39    41     1     0     1 
SMALL
USER_CHARGES
@<TRIPOS>ATOM
  1 O1      9.346000    1.228000   20.991000 o     1 T07    -0.5781 ****
  2 C1      8.809000    0.475000   21.808000 c     1 T07     0.6581 ****
  3 C2      9.426000    0.046000   23.121000 c3    1 T07    -0.1514 ****
  4 C3     10.951000    0.007000   23.018000 c3    1 T07    -0.0617 ****
  5 C4     11.391000   -1.072000   22.027000 c3    1 T07    -0.0764 ****
  6 C5     12.585000   -1.880000   22.521000 c3    1 T07    -0.0749 ****
  7 C6     13.634000   -1.016000   23.202000 c3    1 T07    -0.0774 ****
  8 C7     13.056000   -0.150000   24.319000 c3    1 T07    -0.0749 ****
  9 C8     11.539000   -0.252000   24.405000 c3    1 T07    -0.0764 ****
 10 N1      7.510000    0.030000   21.580000 ns    1 T07    -0.4731 ****
 11 C9      6.786000    0.419000   20.432000 ca    1 T07    -0.0177 ****
 12 C10     5.538000    1.089000   20.594000 ca    1 T07    -0.1133 ****
 13 C11     4.786000    1.356000   19.437000 ca    1 T07     0.2853 ****
 14 C12     5.340000    1.013000   18.159000 ca    1 T07     0.3769 ****
 15 N2      6.533000    0.454000   18.021000 nb    1 T07    -0.6350 ****
 16 C13     7.249000    0.148000   19.156000 ca    1 T07     0.4333 ****
 17 H22     9.045000   -0.941000   23.473000 hc    1 T07     0.0742 ****
 18 H23     9.091000    0.771000   23.897000 hc    1 T07     0.0742 ****
 19 H3     11.319000    1.005000   22.664000 hc    1 T07     0.0677 ****
 20 H42    10.565000   -1.776000   21.782000 hc    1 T07     0.0407 ****
 21 H43    11.612000   -0.600000   21.051000 hc    1 T07     0.0407 ****
 22 H52    13.051000   -2.418000   21.669000 hc    1 T07     0.0422 ****
 23 H53    12.249000   -2.683000   23.212000 hc    1 T07     0.0422 ****
 24 H62    14.439000   -1.668000   23.603000 hc    1 T07     0.0427 ****
 25 H63    14.140000   -0.380000   22.448000 hc    1 T07     0.0427 ****
 26 H72    13.518000   -0.424000   25.289000 hc    1 T07     0.0422 ****
 27 H73    13.349000    0.910000   24.161000 hc    1 T07     0.0422 ****
 28 H82    11.145000    0.474000   25.145000 hc    1 T07     0.0407 ****
 29 H83    11.221000   -1.240000   24.794000 hc    1 T07     0.0407 ****
 30 H1      7.020000   -0.570000   22.245000 hn    1 T07     0.3245 ****
 31 C16     5.008000    1.498000   21.849000 ca    1 T07    -0.0560 ****
 32 N3      3.529000    1.931000   19.483000 nb    1 T07    -0.6470 ****
 33 H12     4.783000    1.230000   17.238000 h4    1 T07     0.0491 ****
 34 Cl1     8.591000   -0.536000   18.896000 cl    1 T07    -0.1580 ****
 35 C14     3.065000    2.282000   20.674000 ca    1 T07     0.4172 ****
 36 C15     3.788000    2.106000   21.893000 ca    1 T07    -0.2393 ****
 37 H14     2.051000    2.727000   20.676000 h4    1 T07     0.0281 ****
 38 H15     3.338000    2.446000   22.838000 ha    1 T07     0.1500 ****
 39 H16     5.574000    1.323000   22.776000 ha    1 T07     0.1560 ****
@<TRIPOS>BOND
    1     1     2 1
    2     2     3 1
    3     2    10 1
    4     3     4 1
    5     3    17 1
    6     3    18 1
    7     4     5 1
    8     4     9 1
    9     4    19 1
   10     5     6 1
   11     5    20 1
   12     5    21 1
   13     6     7 1
   14     6    22 1
   15     6    23 1
   16     7     8 1
   17     7    24 1
   18     7    25 1
   19     8     9 1
   20     8    26 1
   21     8    27 1
   22     9    28 1
   23     9    29 1
   24    10    11 1
   25    10    30 1
   26    11    12 1
   27    11    16 1
   28    12    13 1
   29    12    31 1
   30    13    14 1
   31    13    32 1
   32    14    15 1
   33    14    33 1
   34    15    16 1
   35    16    34 1
   36    31    36 1
   37    31    39 1
   38    32    35 1
   39    35    36 1
   40    35    37 1
   41    36    38 1
@<TRIPOS>SUBSTRUCTURE
      1  T07              1 ****               0 ****  **** 
