@<TRIPOS>MOLECULE
S92
   29    30     1     0     0
SMALL
bcc


@<TRIPOS>ATOM
      1 O1           8.8190     0.8850    20.7200 o          1 S92      -0.589100
      2 C1           8.2920    -0.0220    21.3850 c          1 S92       0.757100
      3 N1           8.9950    -0.7350    22.3490 ns         1 S92      -0.452100
      4 C2          10.3090    -0.2840    22.6810 ca         1 S92       0.055600
      5 C3          10.4420     0.8260    23.5170 ca         1 S92      -0.156000
      6 C4          11.7110     1.3170    23.7930 ca         1 S92      -0.108500
      7 C5          12.8310     0.6970    23.2500 ca         1 S92      -0.149000
      8 C6          12.6870    -0.4300    22.4490 ca         1 S92      -0.108500
      9 C7          11.4260    -0.9310    22.1510 ca         1 S92      -0.156000
     10 N2           6.9390    -0.3760    21.1920 ns         1 S92      -0.466100
     11 C8           6.2800     0.2010    20.0800 ca         1 S92      -0.022700
     12 C9           5.1460     0.9880    20.2530 ca         1 S92      -0.181000
     13 C10          4.5370     1.5340    19.1120 ca         1 S92       0.039300
     14 C11          5.1030     1.2450    17.8460 ca         1 S92       0.353200
     15 N3           6.1970     0.4810    17.6880 nb         1 S92      -0.620000
     16 C12          6.7830    -0.0360    18.7860 ca         1 S92       0.468300
     17 H1           8.6320    -1.5700    22.8030 hn         1 S92       0.308500
     18 H3           9.5590     1.3150    23.9460 ha         1 S92       0.148000
     19 H4          11.8180     2.2030    24.4260 ha         1 S92       0.134000
     20 H5          13.8250     1.1150    23.4260 ha         1 S92       0.134000
     21 H6          13.5740    -0.9200    22.0350 ha         1 S92       0.134000
     22 H7          11.3150    -1.8050    21.5000 ha         1 S92       0.148000
     23 H2           6.3620    -0.7180    21.9630 hn         1 S92       0.307500
     24 H9           4.7530     1.2010    21.2540 ha         1 S92       0.143000
     25 N4           3.3660     2.2630    19.2200 nv         1 S92      -0.812200
     26 H11          4.6970     1.6790    16.9270 h4         1 S92       0.030100
     27 Cl1          8.0380    -0.8730    18.5370 cl         1 S92      -0.133000
     28 H41          3.1920     2.7360    20.0980 hn         1 S92       0.397800
     29 H42          3.0830     2.7990    18.4110 hn         1 S92       0.397800
@<TRIPOS>BOND
     1     1     2 2   
     2     2     3 1   
     3     2    10 1   
     4     3     4 1   
     5     3    17 1   
     6     4     5 ar  
     7     4     9 ar  
     8     5     6 ar  
     9     5    18 1   
    10     6     7 ar  
    11     6    19 1   
    12     7     8 ar  
    13     7    20 1   
    14     8     9 ar  
    15     8    21 1   
    16     9    22 1   
    17    10    11 1   
    18    10    23 1   
    19    11    12 ar  
    20    11    16 ar  
    21    12    13 ar  
    22    12    24 1   
    23    13    14 ar  
    24    13    25 1   
    25    14    15 ar  
    26    14    26 1   
    27    15    16 ar  
    28    16    27 1   
    29    25    28 1   
    30    25    29 1   
@<TRIPOS>SUBSTRUCTURE
     1 S92         1 TEMP              0 ****  ****    0 ROOT
