@<TRIPOS>MOLECULE
T09
   37    39     1     0     0
SMALL
bcc


@<TRIPOS>ATOM
      1 O1           9.3560     1.2280    20.9590 o          1 T09      -0.569100
      2 C1           8.7930     0.5450    21.8140 c          1 T09       0.666100
      3 C2           9.4030     0.1310    23.1310 c3         1 T09      -0.149400
      4 C3          10.9270     0.0260    23.0150 c3         1 T09      -0.059700
      5 C4          11.3150    -1.0900    22.0420 c3         1 T09      -0.074900
      6 C5          12.5240    -1.8910    22.5140 c3         1 T09      -0.075400
      7 C6          13.5870    -1.0210    23.1630 c3         1 T09      -0.077400
      8 C7          13.0380    -0.1720    24.3070 c3         1 T09      -0.075400
      9 C8          11.5200    -0.2350    24.4000 c3         1 T09      -0.074900
     10 N1           7.4630     0.1580    21.6130 ns         1 T09      -0.482100
     11 C9           6.7760     0.4770    20.4300 cc         1 T09      -0.025700
     12 C10          5.4900     1.0940    20.5580 cc         1 T09      -0.057300
     13 N4           4.7610     1.3540    19.3650 na         1 T09       0.028200
     14 C12          5.3290     1.0590    18.1110 cc         1 T09       0.559400
     15 N2           6.5250     0.5180    18.0140 nd         1 T09      -0.670000
     16 C13          7.2460     0.2160    19.1650 cd         1 T09       0.483300
     17 H22          8.9830    -0.8290    23.5090 hc         1 T09       0.072700
     18 H23          9.1120     0.8910    23.8910 hc         1 T09       0.072700
     19 H3          11.3330     1.0000    22.6380 hc         1 T09       0.066700
     20 H42         10.4750    -1.7930    21.8580 hc         1 T09       0.039950
     21 H43         11.4990    -0.6550    21.0410 hc         1 T09       0.039950
     22 H52         12.9700    -2.4350    21.6560 hc         1 T09       0.041450
     23 H53         12.2070    -2.6890    23.2190 hc         1 T09       0.041450
     24 H62         14.4130    -1.6650    23.5310 hc         1 T09       0.042700
     25 H63         14.0610    -0.3750    22.3980 hc         1 T09       0.042700
     26 H72         13.4950    -0.4860    25.2680 hc         1 T09       0.041450
     27 H73         13.3580     0.8840    24.1780 hc         1 T09       0.041450
     28 H82         11.1470     0.5040    25.1380 hc         1 T09       0.039950
     29 H83         11.1790    -1.2140    24.7950 hc         1 T09       0.039950
     30 H1           6.9190    -0.2950    22.3520 hn         1 T09       0.325500
     31 C15          4.6940     1.5340    21.6080 cd         1 T09      -0.324600
     32 N3           3.5500     1.9310    19.6400 nc         1 T09      -0.546100
     33 H12          4.7510     1.3100    17.2070 h5         1 T09       0.079100
     34 Cl1          8.5980    -0.4450    18.8930 cl         1 T09      -0.111000
     35 C14          3.5040     2.0390    21.0000 cd         1 T09       0.378500
     36 H14          2.6310     2.4690    21.5080 h4         1 T09       0.057800
     37 H15          4.9070     1.4890    22.6730 ha         1 T09       0.170000
@<TRIPOS>BOND
     1     1     2 2   
     2     2     3 1   
     3     2    10 1   
     4     3     4 1   
     5     3    17 1   
     6     3    18 1   
     7     4     5 1   
     8     4     9 1   
     9     4    19 1   
    10     5     6 1   
    11     5    20 1   
    12     5    21 1   
    13     6     7 1   
    14     6    22 1   
    15     6    23 1   
    16     7     8 1   
    17     7    24 1   
    18     7    25 1   
    19     8     9 1   
    20     8    26 1   
    21     8    27 1   
    22     9    28 1   
    23     9    29 1   
    24    10    11 1   
    25    10    30 1   
    26    11    12 1   
    27    11    16 2   
    28    12    13 1   
    29    12    31 2   
    30    13    14 1   
    31    13    32 1   
    32    14    15 2   
    33    14    33 1   
    34    15    16 1   
    35    16    34 1   
    36    31    35 1   
    37    31    37 1   
    38    32    35 2   
    39    35    36 1   
@<TRIPOS>SUBSTRUCTURE
     1 T09         1 TEMP              0 ****  ****    0 ROOT
