@<TRIPOS>MOLECULE
T07
   39    41     1     0     0
SMALL
bcc


@<TRIPOS>ATOM
      1 O1           9.3460     1.2280    20.9910 o          1 T07      -0.578100
      2 C1           8.8090     0.4750    21.8080 c          1 T07       0.658100
      3 C2           9.4260     0.0460    23.1210 c3         1 T07      -0.151400
      4 C3          10.9510     0.0070    23.0180 c3         1 T07      -0.061700
      5 C4          11.3910    -1.0720    22.0270 c3         1 T07      -0.076400
      6 C5          12.5850    -1.8800    22.5210 c3         1 T07      -0.074900
      7 C6          13.6340    -1.0160    23.2020 c3         1 T07      -0.077400
      8 C7          13.0560    -0.1500    24.3190 c3         1 T07      -0.074900
      9 C8          11.5390    -0.2520    24.4050 c3         1 T07      -0.076400
     10 N1           7.5100     0.0300    21.5800 ns         1 T07      -0.473100
     11 C9           6.7860     0.4190    20.4320 ca         1 T07      -0.017700
     12 C10          5.5380     1.0890    20.5940 ca         1 T07      -0.113300
     13 C11          4.7860     1.3560    19.4370 ca         1 T07       0.285300
     14 C12          5.3400     1.0130    18.1590 ca         1 T07       0.376900
     15 N2           6.5330     0.4540    18.0210 nb         1 T07      -0.635000
     16 C13          7.2490     0.1480    19.1560 ca         1 T07       0.433300
     17 H22          9.0450    -0.9410    23.4730 hc         1 T07       0.074200
     18 H23          9.0910     0.7710    23.8970 hc         1 T07       0.074200
     19 H3          11.3190     1.0050    22.6640 hc         1 T07       0.067700
     20 H42         10.5650    -1.7760    21.7820 hc         1 T07       0.040700
     21 H43         11.6120    -0.6000    21.0510 hc         1 T07       0.040700
     22 H52         13.0510    -2.4180    21.6690 hc         1 T07       0.042200
     23 H53         12.2490    -2.6830    23.2120 hc         1 T07       0.042200
     24 H62         14.4390    -1.6680    23.6030 hc         1 T07       0.042700
     25 H63         14.1400    -0.3800    22.4480 hc         1 T07       0.042700
     26 H72         13.5180    -0.4240    25.2890 hc         1 T07       0.042200
     27 H73         13.3490     0.9100    24.1610 hc         1 T07       0.042200
     28 H82         11.1450     0.4740    25.1450 hc         1 T07       0.040700
     29 H83         11.2210    -1.2400    24.7940 hc         1 T07       0.040700
     30 H1           7.0200    -0.5700    22.2450 hn         1 T07       0.324500
     31 C16          5.0080     1.4980    21.8490 ca         1 T07      -0.056000
     32 N3           3.5290     1.9310    19.4830 nb         1 T07      -0.647000
     33 H12          4.7830     1.2300    17.2380 h4         1 T07       0.049100
     34 Cl1          8.5910    -0.5360    18.8960 cl         1 T07      -0.158000
     35 C14          3.0650     2.2820    20.6740 ca         1 T07       0.417200
     36 C15          3.7880     2.1060    21.8930 ca         1 T07      -0.239300
     37 H14          2.0510     2.7270    20.6760 h4         1 T07       0.028100
     38 H15          3.3380     2.4460    22.8380 ha         1 T07       0.150000
     39 H16          5.5740     1.3230    22.7760 ha         1 T07       0.156000
@<TRIPOS>BOND
     1     1     2 2   
     2     2     3 1   
     3     2    10 1   
     4     3     4 1   
     5     3    17 1   
     6     3    18 1   
     7     4     5 1   
     8     4     9 1   
     9     4    19 1   
    10     5     6 1   
    11     5    20 1   
    12     5    21 1   
    13     6     7 1   
    14     6    22 1   
    15     6    23 1   
    16     7     8 1   
    17     7    24 1   
    18     7    25 1   
    19     8     9 1   
    20     8    26 1   
    21     8    27 1   
    22     9    28 1   
    23     9    29 1   
    24    10    11 1   
    25    10    30 1   
    26    11    12 ar  
    27    11    16 ar  
    28    12    13 ar  
    29    12    31 ar  
    30    13    14 ar  
    31    13    32 ar  
    32    14    15 ar  
    33    14    33 1   
    34    15    16 ar  
    35    16    34 1   
    36    31    36 ar  
    37    31    39 1   
    38    32    35 ar  
    39    35    36 ar  
    40    35    37 1   
    41    36    38 1   
@<TRIPOS>SUBSTRUCTURE
     1 T07         1 TEMP              0 ****  ****    0 ROOT
