@<TRIPOS>MOLECULE
T11
   37    39     1     0     1 
SMALL
USER_CHARGES
@<TRIPOS>ATOM
  1 O1      9.326000    1.165000   20.978000 o     1 T11    -0.5711 ****
  2 C1      8.730000    0.506000   21.832000 c     1 T11     0.6621 ****
  3 C2      9.331000    0.052000   23.141000 c3    1 T11    -0.1504 ****
  4 C3     10.861000    0.024000   23.051000 c3    1 T11    -0.0577 ****
  5 C4     11.317000   -1.029000   22.036000 c3    1 T11    -0.0754 ****
  6 C5     12.518000   -1.837000   22.515000 c3    1 T11    -0.0749 ****
  7 C6     13.559000   -0.979000   23.213000 c3    1 T11    -0.0764 ****
  8 C7     12.970000   -0.133000   24.339000 c3    1 T11    -0.0749 ****
  9 C8     11.454000   -0.257000   24.431000 c3    1 T11    -0.0754 ****
 10 N1      7.387000    0.165000   21.623000 ns    1 T11    -0.4641 ****
 11 C9      6.753000    0.488000   20.410000 ca    1 T11     0.0083 ****
 12 C10     5.528000    1.176000   20.382000 ca    1 T11     0.0654 ****
 13 C11     4.944000    1.492000   19.123000 ca    1 T11    -0.1915 ****
 14 C12     5.584000    1.112000   17.934000 ca    1 T11     0.4152 ****
 15 N2      6.745000    0.452000   17.970000 nb    1 T11    -0.6350 ****
 16 C13     7.310000    0.143000   19.172000 ca    1 T11     0.4723 ****
 17 H22     8.943000   -0.947000   23.447000 hc    1 T11     0.0727 ****
 18 H23     8.987000    0.750000   23.937000 hc    1 T11     0.0727 ****
 19 H3     11.220000    1.034000   22.720000 hc    1 T11     0.0657 ****
 20 H42    10.500000   -1.734000   21.773000 hc    1 T11     0.0409 ****
 21 H43    11.537000   -0.530000   21.073000 hc    1 T11     0.0409 ****
 22 H52    12.987000   -2.355000   21.653000 hc    1 T11     0.0402 ****
 23 H53    12.189000   -2.656000   23.191000 hc    1 T11     0.0402 ****
 24 H62    14.366000   -1.633000   23.608000 hc    1 T11     0.0412 ****
 25 H63    14.071000   -0.332000   22.475000 hc    1 T11     0.0412 ****
 26 H72    13.443000   -0.408000   25.302000 hc    1 T11     0.0402 ****
 27 H73    13.246000    0.934000   24.192000 hc    1 T11     0.0402 ****
 28 H82    11.054000    0.450000   25.188000 hc    1 T11     0.0409 ****
 29 H83    11.149000   -1.257000   24.800000 hc    1 T11     0.0409 ****
 30 H1      6.796000   -0.171000   22.385000 hn    1 T11     0.3265 ****
 31 N7      4.712000    1.657000   21.419000 nc    1 T11    -0.5731 ****
 32 N3      3.752000    2.159000   19.405000 na    1 T11    -0.2713 ****
 33 H12     5.183000    1.369000   16.949000 h4    1 T11     0.0331 ****
 34 Cl1     8.629000   -0.623000   19.071000 cl    1 T11    -0.1300 ****
 35 C14     3.665000    2.252000   20.803000 cd    1 T11     0.4337 ****
 36 H14     2.818000    2.737000   21.329000 h5    1 T11     0.0748 ****
 37 HN3     3.204000    2.666000   18.711000 hn    1 T11     0.3137 ****
@<TRIPOS>BOND
    1     1     2 1
    2     2     3 1
    3     2    10 1
    4     3     4 1
    5     3    17 1
    6     3    18 1
    7     4     5 1
    8     4     9 1
    9     4    19 1
   10     5     6 1
   11     5    20 1
   12     5    21 1
   13     6     7 1
   14     6    22 1
   15     6    23 1
   16     7     8 1
   17     7    24 1
   18     7    25 1
   19     8     9 1
   20     8    26 1
   21     8    27 1
   22     9    28 1
   23     9    29 1
   24    10    11 1
   25    10    30 1
   26    11    12 1
   27    11    16 1
   28    12    13 1
   29    12    31 1
   30    13    14 1
   31    13    32 1
   32    14    15 1
   33    14    33 1
   34    15    16 1
   35    16    34 1
   36    31    35 1
   37    32    35 1
   38    32    37 1
   39    35    36 1
@<TRIPOS>SUBSTRUCTURE
      1  T11              1 ****               0 ****  **** 
