@<TRIPOS>MOLECULE
S94
   35    36     1     0     1 
SMALL
USER_CHARGES
@<TRIPOS>ATOM
  1 O1      8.792000    0.876000   20.698000 o     1 S94    -0.6121 ****
  2 C1      8.338000   -0.115000   21.292000 c     1 S94     0.7751 ****
  3 N1      9.089000   -0.832000   22.223000 ns    1 S94    -0.4611 ****
  4 C2     10.370000   -0.321000   22.585000 ca    1 S94     0.0596 ****
  5 C3     10.434000    0.804000   23.412000 ca    1 S94    -0.1555 ****
  6 C4     11.678000    1.331000   23.739000 ca    1 S94    -0.1090 ****
  7 C5     12.833000    0.734000   23.250000 ca    1 S94    -0.1480 ****
  8 C6     12.758000   -0.403000   22.456000 ca    1 S94    -0.1090 ****
  9 C7     11.527000   -0.943000   22.113000 ca    1 S94    -0.1555 ****
 10 N2      7.030000   -0.573000   21.062000 ns    1 S94    -0.4621 ****
 11 C8      6.278000    0.104000   20.063000 ca    1 S94     0.0083 ****
 12 C9      5.165000    0.862000   20.416000 ca    1 S94    -0.1750 ****
 13 C10     4.439000    1.510000   19.405000 ca    1 S94     0.0803 ****
 14 C11     4.898000    1.349000   18.073000 ca    1 S94     0.3242 ****
 15 N3      5.972000    0.619000   17.731000 nb    1 S94    -0.6050 ****
 16 C12     6.661000    0.005000   18.717000 ca    1 S94     0.3923 ****
 17 H1      8.801000   -1.737000   22.588000 hn    1 S94     0.3105 ****
 18 H3      9.519000    1.271000   23.800000 ha    1 S94     0.1485 ****
 19 H4     11.733000    2.225000   24.375000 ha    1 S94     0.1345 ****
 20 H5     13.807000    1.183000   23.462000 ha    1 S94     0.1340 ****
 21 H6     13.675000   -0.872000   22.082000 ha    1 S94     0.1345 ****
 22 H7     11.465000   -1.831000   21.475000 ha    1 S94     0.1485 ****
 23 H2      6.504000   -1.094000   21.768000 hn    1 S94     0.3225 ****
 24 H9      4.881000    0.948000   21.474000 ha    1 S94     0.1810 ****
 25 N4      3.219000    2.167000   19.706000 nh    1 S94    -0.6500 ****
 26 H11     4.386000    1.856000   17.235000 h4    1 S94     0.0311 ****
 27 Cl1     7.888000   -0.797000   18.282000 cl    1 S94    -0.1720 ****
 28 C13     3.081000    2.652000   21.104000 c3    1 S94     0.1836 ****
 29 C14     2.771000    3.202000   18.743000 c3    1 S94     0.1836 ****
 30 H131    2.130000    3.199000   21.222000 h1    1 S94     0.0435 ****
 31 H132    3.059000    1.798000   21.801000 h1    1 S94     0.0435 ****
 32 H133    3.886000    3.334000   21.428000 h1    1 S94     0.0435 ****
 33 H141    1.664000    3.194000   18.713000 h1    1 S94     0.0435 ****
 34 H142    3.131000    3.034000   17.713000 h1    1 S94     0.0435 ****
 35 H143    3.085000    4.228000   19.003000 h1    1 S94     0.0435 ****
@<TRIPOS>BOND
    1     1     2 1
    2     2     3 1
    3     2    10 1
    4     3     4 1
    5     3    17 1
    6     4     5 1
    7     4     9 1
    8     5     6 1
    9     5    18 1
   10     6     7 1
   11     6    19 1
   12     7     8 1
   13     7    20 1
   14     8     9 1
   15     8    21 1
   16     9    22 1
   17    10    11 1
   18    10    23 1
   19    11    12 1
   20    11    16 1
   21    12    13 1
   22    12    24 1
   23    13    14 1
   24    13    25 1
   25    14    15 1
   26    14    26 1
   27    15    16 1
   28    16    27 1
   29    25    28 1
   30    25    29 1
   31    28    30 1
   32    28    31 1
   33    28    32 1
   34    29    33 1
   35    29    34 1
   36    29    35 1
@<TRIPOS>SUBSTRUCTURE
      1  S94              1 ****               0 ****  **** 
