@<TRIPOS>MOLECULE
S96
   32    34     1     0     0
SMALL
bcc


@<TRIPOS>ATOM
      1 O1           8.8500     1.0020    20.7900 o          1 S96      -0.586100
      2 C1           8.3940     0.0160    21.3920 c          1 S96       0.755100
      3 N1           9.1430    -0.7170    22.3080 ns         1 S96      -0.452100
      4 C2          10.4530    -0.2490    22.6210 ca         1 S96       0.052600
      5 C3          10.5860     0.9070    23.3910 ca         1 S96      -0.154500
      6 C4          11.8580     1.3920    23.6630 ca         1 S96      -0.108500
      7 C5          12.9760     0.7250    23.1760 ca         1 S96      -0.148000
      8 C6          12.8310    -0.4430    22.4370 ca         1 S96      -0.108500
      9 C7          11.5680    -0.9430    22.1480 ca         1 S96      -0.154500
     10 N2           7.0630    -0.3900    21.2000 ns         1 S96      -0.467100
     11 C8           6.3370     0.1850    20.1350 ca         1 S96      -0.050700
     12 C9           5.1740     0.9630    20.3970 ca         1 S96      -0.128300
     13 C10          4.4330     1.4110    19.2900 ca         1 S96       0.276300
     14 C11          4.9320     1.1520    17.9700 ca         1 S96       0.393900
     15 N3           6.0510     0.4830    17.7460 nb         1 S96      -0.646000
     16 C12          6.7460    -0.0110    18.8270 ca         1 S96       0.505300
     17 H1           8.8640    -1.6400    22.6390 hn         1 S96       0.306500
     18 H3           9.7030     1.4340    23.7740 ha         1 S96       0.148000
     19 H4          11.9710     2.3080    24.2530 ha         1 S96       0.134500
     20 H5          13.9730     1.1370    23.3490 ha         1 S96       0.134000
     21 H6          13.7140    -0.9660    22.0600 ha         1 S96       0.134500
     22 H7          11.4520    -1.8540    21.5500 ha         1 S96       0.148000
     23 H2           6.5630    -1.0030    21.8470 hn         1 S96       0.308500
     24 N4           3.2330     2.0870    19.4260 nb         1 S96      -0.634000
     25 H11          4.3940     1.5390    17.0930 h4         1 S96       0.050100
     26 Cl1          8.0060    -0.7960    18.4620 cl         1 S96      -0.121000
     27 C15          4.7250     1.3210    21.6970 ca         1 S96      -0.094000
     28 H15          5.3100     1.0270    22.5790 ha         1 S96       0.140000
     29 C14          3.5740     2.0400    21.8310 ca         1 S96      -0.223300
     30 H14          3.1950     2.3600    22.8130 ha         1 S96       0.151000
     31 C13          2.8340     2.3780    20.6550 ca         1 S96       0.408200
     32 H13          1.8660     2.9110    20.7290 h4         1 S96       0.031100
@<TRIPOS>BOND
     1     1     2 2   
     2     2     3 1   
     3     2    10 1   
     4     3     4 1   
     5     3    17 1   
     6     4     5 ar  
     7     4     9 ar  
     8     5     6 ar  
     9     5    18 1   
    10     6     7 ar  
    11     6    19 1   
    12     7     8 ar  
    13     7    20 1   
    14     8     9 ar  
    15     8    21 1   
    16     9    22 1   
    17    10    11 1   
    18    10    23 1   
    19    11    12 ar  
    20    11    16 ar  
    21    12    13 ar  
    22    12    27 ar  
    23    13    14 ar  
    24    13    24 ar  
    25    14    15 ar  
    26    14    25 1   
    27    15    16 ar  
    28    16    26 1   
    29    24    31 ar  
    30    27    28 1   
    31    27    29 ar  
    32    29    30 1   
    33    29    31 ar  
    34    31    32 1   
@<TRIPOS>SUBSTRUCTURE
     1 S96         1 TEMP              0 ****  ****    0 ROOT
