@<TRIPOS>MOLECULE
T08
   38    40     1     0     1 
SMALL
USER_CHARGES
@<TRIPOS>ATOM
  1 O1      9.304000    1.189000   20.997000 o     1 T08    -0.5801 ****
  2 C1      8.724000    0.465000   21.815000 c     1 T08     0.6631 ****
  3 C2      9.329000    0.016000   23.128000 c3    1 T08    -0.1524 ****
  4 C3     10.858000    0.008000   23.041000 c3    1 T08    -0.0617 ****
  5 C4     11.328000   -1.040000   22.028000 c3    1 T08    -0.0769 ****
  6 C5     12.531000   -1.843000   22.515000 c3    1 T08    -0.0749 ****
  7 C6     13.565000   -0.979000   23.218000 c3    1 T08    -0.0774 ****
  8 C7     12.966000   -0.128000   24.335000 c3    1 T08    -0.0749 ****
  9 C8     11.452000   -0.264000   24.422000 c3    1 T08    -0.0769 ****
 10 N1      7.411000    0.065000   21.573000 ns    1 T08    -0.4661 ****
 11 C9      6.767000    0.409000   20.365000 ca    1 T08     0.0213 ****
 12 C10     5.520000    1.060000   20.386000 ca    1 T08    -0.0768 ****
 13 C11     4.944000    1.433000   19.138000 ca    1 T08    -0.1535 ****
 14 C12     5.594000    1.127000   17.936000 ca    1 T08     0.3842 ****
 15 N2      6.768000    0.490000   17.931000 nb    1 T08    -0.6230 ****
 16 C13     7.339000    0.140000   19.125000 ca    1 T08     0.4033 ****
 17 H22     8.955000   -0.987000   23.437000 hc    1 T08     0.0732 ****
 18 H23     8.976000    0.711000   23.922000 hc    1 T08     0.0732 ****
 19 H3     11.208000    1.021000   22.709000 hc    1 T08     0.0667 ****
 20 H42    10.518000   -1.751000   21.757000 hc    1 T08     0.0412 ****
 21 H43    11.552000   -0.538000   21.068000 hc    1 T08     0.0412 ****
 22 H52    13.007000   -2.359000   21.655000 hc    1 T08     0.0412 ****
 23 H53    12.202000   -2.662000   23.189000 hc    1 T08     0.0412 ****
 24 H62    14.370000   -1.629000   23.620000 hc    1 T08     0.0422 ****
 25 H63    14.080000   -0.334000   22.480000 hc    1 T08     0.0422 ****
 26 H72    13.439000   -0.395000   25.302000 hc    1 T08     0.0412 ****
 27 H73    13.236000    0.939000   24.183000 hc    1 T08     0.0412 ****
 28 H82    11.045000    0.442000   25.177000 hc    1 T08     0.0412 ****
 29 H83    11.154000   -1.265000   24.796000 hc    1 T08     0.0412 ****
 30 H1      6.852000   -0.415000   22.280000 hn    1 T08     0.3255 ****
 31 C15     4.628000    1.490000   21.413000 cc    1 T08    -0.1502 ****
 32 N3      3.734000    2.068000   19.403000 na    1 T08    -0.1794 ****
 33 H12     5.187000    1.423000   16.964000 h4    1 T08     0.0291 ****
 34 Cl1     8.682000   -0.577000   18.987000 cl    1 T08    -0.1760 ****
 35 C14     3.561000    2.117000   20.794000 cd    1 T08    -0.1091 ****
 36 H14     2.680000    2.585000   21.248000 h4    1 T08     0.1710 ****
 37 H15     4.771000    1.340000   22.480000 ha    1 T08     0.1800 ****
 38 HN3     3.205000    2.582000   18.706000 hn    1 T08     0.3037 ****
@<TRIPOS>BOND
    1     1     2 1
    2     2     3 1
    3     2    10 1
    4     3     4 1
    5     3    17 1
    6     3    18 1
    7     4     5 1
    8     4     9 1
    9     4    19 1
   10     5     6 1
   11     5    20 1
   12     5    21 1
   13     6     7 1
   14     6    22 1
   15     6    23 1
   16     7     8 1
   17     7    24 1
   18     7    25 1
   19     8     9 1
   20     8    26 1
   21     8    27 1
   22     9    28 1
   23     9    29 1
   24    10    11 1
   25    10    30 1
   26    11    12 1
   27    11    16 1
   28    12    13 1
   29    12    31 1
   30    13    14 1
   31    13    32 1
   32    14    15 1
   33    14    33 1
   34    15    16 1
   35    16    34 1
   36    31    35 1
   37    31    37 1
   38    32    35 1
   39    32    38 1
   40    35    36 1
@<TRIPOS>SUBSTRUCTURE
      1  T08              1 ****               0 ****  **** 
