@<TRIPOS>MOLECULE
T04
   39    40     1     0     0
SMALL
bcc


@<TRIPOS>ATOM
      1 O1           9.3120     1.2040    21.0100 o          1 T04      -0.591100
      2 C1           8.7470     0.4730    21.8290 c          1 T04       0.670100
      3 C2           9.3560     0.0360    23.1420 c3         1 T04      -0.152400
      4 C3          10.8820     0.0050    23.0460 c3         1 T04      -0.061700
      5 C4          11.3300    -1.0590    22.0390 c3         1 T04      -0.075900
      6 C5          12.5380    -1.8580    22.5180 c3         1 T04      -0.074900
      7 C6          13.5790    -0.9930    23.2070 c3         1 T04      -0.077400
      8 C7          12.9940    -0.1460    24.3340 c3         1 T04      -0.074900
      9 C8          11.4800    -0.2650    24.4270 c3         1 T04      -0.075900
     10 N1           7.4380     0.0560    21.5930 ns         1 T04      -0.467100
     11 C9           6.7690     0.4130    20.3980 ca         1 T04       0.018300
     12 C10          5.5270     1.0430    20.4710 ca         1 T04      -0.195000
     13 C11          4.8930     1.4070    19.2760 ca         1 T04       0.072300
     14 C12          5.5430     1.0900    18.0560 ca         1 T04       0.314200
     15 N2           6.7350     0.4720    17.9910 nb         1 T04      -0.600000
     16 C13          7.3450     0.1370    19.1440 ca         1 T04       0.385300
     17 H22          8.9730    -0.9560    23.4760 hc         1 T04       0.074700
     18 H23          9.0180     0.7530    23.9250 hc         1 T04       0.074700
     19 H3          11.2460     1.0080    22.7040 hc         1 T04       0.065700
     20 H42         10.5120    -1.7690    21.7940 hc         1 T04       0.040950
     21 H43         11.5360    -0.5730    21.0670 hc         1 T04       0.040950
     22 H52         13.0040    -2.3790    21.6550 hc         1 T04       0.041700
     23 H53         12.2140    -2.6750    23.1970 hc         1 T04       0.041700
     24 H62         14.3920    -1.6420    23.5970 hc         1 T04       0.042200
     25 H63         14.0810    -0.3440    22.4620 hc         1 T04       0.042200
     26 H72         13.4660    -0.4260    25.2970 hc         1 T04       0.041700
     27 H73         13.2750     0.9200    24.1900 hc         1 T04       0.041700
     28 H82         11.0810     0.4480    25.1780 hc         1 T04       0.040950
     29 H83         11.1720    -1.2630    24.8030 hc         1 T04       0.040950
     30 H1           6.8940    -0.4330    22.3070 hn         1 T04       0.332500
     31 H10          5.0750     1.2470    21.4500 ha         1 T04       0.184000
     32 N3           3.6300     1.9890    19.2410 nu         1 T04      -0.730600
     33 H12          5.1130     1.3620    17.0860 h4         1 T04       0.028100
     34 Cl1          8.6930    -0.5710    19.0010 cl         1 T04      -0.174000
     35 C14          3.0760     2.5890    20.4580 c3         1 T04       0.175100
     36 HN3          3.3890     2.4540    18.3640 hn         1 T04       0.407800
     37 H141         2.1460     3.1350    20.2150 h1         1 T04       0.044367
     38 H142         2.8290     1.8110    21.2050 h1         1 T04       0.044367
     39 H143         3.7440     3.3220    20.9480 h1         1 T04       0.044367
@<TRIPOS>BOND
     1     1     2 2   
     2     2     3 1   
     3     2    10 1   
     4     3     4 1   
     5     3    17 1   
     6     3    18 1   
     7     4     5 1   
     8     4     9 1   
     9     4    19 1   
    10     5     6 1   
    11     5    20 1   
    12     5    21 1   
    13     6     7 1   
    14     6    22 1   
    15     6    23 1   
    16     7     8 1   
    17     7    24 1   
    18     7    25 1   
    19     8     9 1   
    20     8    26 1   
    21     8    27 1   
    22     9    28 1   
    23     9    29 1   
    24    10    11 1   
    25    10    30 1   
    26    11    12 ar  
    27    11    16 ar  
    28    12    13 ar  
    29    12    31 1   
    30    13    14 ar  
    31    13    32 1   
    32    14    15 ar  
    33    14    33 1   
    34    15    16 ar  
    35    16    34 1   
    36    32    35 1   
    37    32    36 1   
    38    35    37 1   
    39    35    38 1   
    40    35    39 1   
@<TRIPOS>SUBSTRUCTURE
     1 T04         1 TEMP              0 ****  ****    0 ROOT
