@<TRIPOS>MOLECULE
S78
   27    28     1     0     1 
SMALL
USER_CHARGES
@<TRIPOS>ATOM
  1 O1      8.775000    0.925000   20.706000 o     1 S78    -0.5891 ****
  2 C1      8.256000    0.017000   21.379000 c     1 S78     0.7551 ****
  3 N1      8.963000   -0.681000   22.350000 ns    1 S78    -0.4521 ****
  4 C2     10.284000   -0.235000   22.665000 ca    1 S78     0.0546 ****
  5 C3     10.437000    0.891000   23.473000 ca    1 S78    -0.1555 ****
  6 C4     11.716000    1.359000   23.746000 ca    1 S78    -0.1085 ****
  7 C5     12.823000    0.704000   23.221000 ca    1 S78    -0.1490 ****
  8 C6     12.659000   -0.436000   22.443000 ca    1 S78    -0.1085 ****
  9 C7     11.389000   -0.915000   22.151000 ca    1 S78    -0.1555 ****
 10 N2      6.909000   -0.358000   21.182000 ns    1 S78    -0.4621 ****
 11 C8      6.244000    0.192000   20.061000 ca    1 S78    -0.0677 ****
 12 C9      5.049000    0.903000   20.206000 ca    1 S78    -0.1080 ****
 13 C10     4.448000    1.421000   19.066000 ca    1 S78    -0.2383 ****
 14 C11     5.064000    1.221000   17.826000 ca    1 S78     0.4092 ****
 15 N3      6.209000    0.521000   17.668000 nb    1 S78    -0.6510 ****
 16 C12     6.788000    0.014000   18.776000 ca    1 S78     0.5143 ****
 17 H1      8.599000   -1.504000   22.826000 hn    1 S78     0.3085 ****
 18 H3      9.563000    1.409000   23.888000 ha    1 S78     0.1480 ****
 19 H4     11.840000    2.254000   24.363000 ha    1 S78     0.1340 ****
 20 H5     13.826000    1.099000   23.401000 ha    1 S78     0.1340 ****
 21 H6     13.536000   -0.953000   22.040000 ha    1 S78     0.1340 ****
 22 H7     11.261000   -1.804000   21.520000 ha    1 S78     0.1480 ****
 23 H2      6.335000   -0.724000   21.944000 hn    1 S78     0.3065 ****
 24 H9      4.594000    1.071000   21.191000 ha    1 S78     0.1430 ****
 25 H10     3.527000    2.009000   19.136000 ha    1 S78     0.1500 ****
 26 H11     4.648000    1.660000   16.912000 h4    1 S78     0.0321 ****
 27 Cl1     8.085000   -0.761000   18.544000 cl    1 S78    -0.1270 ****
@<TRIPOS>BOND
    1     1     2 1
    2     2     3 1
    3     2    10 1
    4     3     4 1
    5     3    17 1
    6     4     5 1
    7     4     9 1
    8     5     6 1
    9     5    18 1
   10     6     7 1
   11     6    19 1
   12     7     8 1
   13     7    20 1
   14     8     9 1
   15     8    21 1
   16     9    22 1
   17    10    11 1
   18    10    23 1
   19    11    12 1
   20    11    16 1
   21    12    13 1
   22    12    24 1
   23    13    14 1
   24    13    25 1
   25    14    15 1
   26    14    26 1
   27    15    16 1
   28    16    27 1
@<TRIPOS>SUBSTRUCTURE
      1  S78              1 ****               0 ****  **** 
