@<TRIPOS>MOLECULE
S99
   30    32     1     0     0
SMALL
bcc


@<TRIPOS>ATOM
      1 O1           8.7050     1.0880    20.8670 o          1 S99      -0.596100
      2 C1           8.3450     0.0120    21.3720 c          1 S99       0.764100
      3 N1           9.1180    -0.7130    22.2730 ns         1 S99      -0.455100
      4 C2          10.4150    -0.2120    22.5920 ca         1 S99       0.051600
      5 C3          10.5390     0.9630    23.3340 ca         1 S99      -0.153000
      6 C4          11.8120     1.4390    23.6250 ca         1 S99      -0.108500
      7 C5          12.9340     0.7540    23.1730 ca         1 S99      -0.144000
      8 C6          12.7930    -0.4230    22.4460 ca         1 S99      -0.108500
      9 C7          11.5340    -0.9190    22.1460 ca         1 S99      -0.153000
     10 N2           7.0740    -0.5280    21.0700 ns         1 S99      -0.464100
     11 C8           6.3480     0.0440    20.0090 cc         1 S99       0.017000
     12 N6           5.1880     0.7790    20.3110 na         1 S99       0.022700
     13 C10          4.4200     1.3430    19.2560 cc         1 S99      -0.163600
     14 C11          4.9160     1.2020    17.9130 cc         1 S99       0.468200
     15 N3           6.0050     0.5150    17.6400 nd         1 S99      -0.631000
     16 C12          6.7110    -0.0670    18.6880 cd         1 S99       0.400300
     17 H1           8.9010    -1.6730    22.5350 hn         1 S99       0.313500
     18 H3           9.6540     1.5090    23.6830 ha         1 S99       0.149500
     19 H4          11.9250     2.3650    24.2000 ha         1 S99       0.137000
     20 H5          13.9340     1.1570    23.3660 ha         1 S99       0.136000
     21 H6          13.6790    -0.9540    22.0840 ha         1 S99       0.137000
     22 H7          11.4170    -1.8410    21.5670 ha         1 S99       0.149500
     23 H2           6.6940    -1.3680    21.5130 hn         1 S99       0.326500
     24 N4           3.2930     1.9150    19.7590 nd         1 S99      -0.248600
     25 H11          4.3790     1.6910    17.0930 h4         1 S99       0.060100
     26 Cl1          7.9450    -0.8660    18.2690 cl         1 S99      -0.137000
     27 C14          4.5030     1.0140    21.5020 cc         1 S99      -0.162100
     28 H14          4.8460     0.6960    22.4910 h4         1 S99       0.204000
     29 C13          3.3470     1.7170    21.1340 cd         1 S99      -0.002400
     30 H13          2.5530     2.0920    21.7920 h4         1 S99       0.188000
@<TRIPOS>BOND
     1     1     2 2   
     2     2     3 1   
     3     2    10 1   
     4     3     4 1   
     5     3    17 1   
     6     4     5 ar  
     7     4     9 ar  
     8     5     6 ar  
     9     5    18 1   
    10     6     7 ar  
    11     6    19 1   
    12     7     8 ar  
    13     7    20 1   
    14     8     9 ar  
    15     8    21 1   
    16     9    22 1   
    17    10    11 1   
    18    10    23 1   
    19    11    12 1   
    20    11    16 2   
    21    12    13 1   
    22    12    27 1   
    23    13    14 1   
    24    13    24 2   
    25    14    15 2   
    26    14    25 1   
    27    15    16 1   
    28    16    26 1   
    29    24    29 1   
    30    27    28 1   
    31    27    29 2   
    32    29    30 1   
@<TRIPOS>SUBSTRUCTURE
     1 S99         1 TEMP              0 ****  ****    0 ROOT
