@<TRIPOS>MOLECULE
S98
   30    32     1     0     1 
SMALL
USER_CHARGES
@<TRIPOS>ATOM
  1 O1      8.814000    0.962000   20.686000 o     1 S98    -0.5851 ****
  2 C1      8.360000   -0.004000   21.314000 c     1 S98     0.7521 ****
  3 N1      9.105000   -0.716000   22.248000 ns    1 S98    -0.4511 ****
  4 C2     10.418000   -0.245000   22.561000 ca    1 S98     0.0526 ****
  5 C3     10.550000    0.925000   23.319000 ca    1 S98    -0.1545 ****
  6 C4     11.816000    1.397000   23.613000 ca    1 S98    -0.1085 ****
  7 C5     12.941000    0.718000   23.159000 ca    1 S98    -0.1470 ****
  8 C6     12.796000   -0.462000   22.428000 ca    1 S98    -0.1085 ****
  9 C7     11.539000   -0.949000   22.119000 ca    1 S98    -0.1545 ****
 10 N2      7.029000   -0.428000   21.122000 ns    1 S98    -0.4451 ****
 11 C8      6.314000    0.120000   20.038000 cc    1 S98     0.0206 ****
 12 C9      5.089000    0.806000   20.307000 cc    1 S98    -0.0613 ****
 13 N5      4.387000    1.352000   19.198000 na    1 S98     0.0446 ****
 14 C11     4.920000    1.248000   17.896000 cc    1 S98     0.2754 ****
 15 N3      6.050000    0.604000   17.675000 nd    1 S98    -0.3650 ****
 16 C12     6.749000    0.040000   18.737000 cd    1 S98     0.3910 ****
 17 H1      8.793000   -1.595000   22.655000 hn    1 S98     0.3095 ****
 18 H3      9.663000    1.466000   23.672000 ha    1 S98     0.1490 ****
 19 H4     11.924000    2.318000   24.197000 ha    1 S98     0.1350 ****
 20 H5     13.934000    1.125000   23.341000 ha    1 S98     0.1340 ****
 21 H6     13.686000   -0.996000   22.082000 ha    1 S98     0.1350 ****
 22 H7     11.429000   -1.867000   21.524000 ha    1 S98     0.1490 ****
 23 H2      6.511000   -0.967000   21.817000 hn    1 S98     0.3095 ****
 24 N4      3.248000    1.996000   19.607000 nc    1 S98    -0.2468 ****
 25 H11     4.380000    1.742000   17.068000 h5    1 S98     0.0801 ****
 26 Cl1     8.045000   -0.661000   18.331000 cl    1 S98    -0.1040 ****
 27 C14     4.348000    1.117000   21.437000 cd    1 S98    -0.2430 ****
 28 H14     4.572000    0.874000   22.471000 ha    1 S98     0.1700 ****
 29 C13     3.221000    1.856000   20.963000 cd    1 S98     0.0082 ****
 30 H13     2.407000    2.284000   21.559000 h4    1 S98     0.0588 ****
@<TRIPOS>BOND
    1     1     2 1
    2     2     3 1
    3     2    10 1
    4     3     4 1
    5     3    17 1
    6     4     5 1
    7     4     9 1
    8     5     6 1
    9     5    18 1
   10     6     7 1
   11     6    19 1
   12     7     8 1
   13     7    20 1
   14     8     9 1
   15     8    21 1
   16     9    22 1
   17    10    11 1
   18    10    23 1
   19    11    12 1
   20    11    16 1
   21    12    13 1
   22    12    27 1
   23    13    14 1
   24    13    24 1
   25    14    15 1
   26    14    25 1
   27    15    16 1
   28    16    26 1
   29    24    29 1
   30    27    28 1
   31    27    29 1
   32    29    30 1
@<TRIPOS>SUBSTRUCTURE
      1  S98              1 ****               0 ****  **** 
