@<TRIPOS>MOLECULE
T10
   37    39     1     0     0
SMALL
bcc


@<TRIPOS>ATOM
      1 O1           9.3210     1.2610    20.9760 o          1 T10      -0.572100
      2 C1           8.7800     0.5540    21.8150 c          1 T10       0.663100
      3 C2           9.3830     0.1520    23.1380 c3         1 T10      -0.150400
      4 C3          10.9050     0.0360    23.0170 c3         1 T10      -0.062700
      5 C4          11.2780    -1.0860    22.0470 c3         1 T10      -0.076400
      6 C5          12.4970    -1.8810    22.5050 c3         1 T10      -0.074900
      7 C6          13.5630    -1.0050    23.1480 c3         1 T10      -0.077400
      8 C7          13.0200    -0.1640    24.3020 c3         1 T10      -0.074900
      9 C8          11.5000    -0.2280    24.4000 c3         1 T10      -0.076400
     10 N1           7.4660     0.1100    21.5910 ns         1 T10      -0.480100
     11 C9           6.7920     0.4310    20.3980 cc         1 T10       0.026000
     12 N5           5.5580     1.0950    20.5210 na         1 T10       0.015700
     13 C11          4.7720     1.3690    19.3680 cc         1 T10      -0.158600
     14 C12          5.3500     1.0570    18.0910 cc         1 T10       0.460200
     15 N2           6.5270     0.4840    17.9750 nd         1 T10      -0.627000
     16 C13          7.2350     0.1500    19.1240 cd         1 T10       0.393300
     17 H22          8.9610    -0.8020    23.5330 hc         1 T10       0.077700
     18 H23          9.0990     0.9370    23.8770 hc         1 T10       0.077700
     19 H3          11.3170     1.0060    22.6350 hc         1 T10       0.067700
     20 H42         10.4360    -1.7930    21.8840 hc         1 T10       0.040700
     21 H43         11.4470    -0.6570    21.0400 hc         1 T10       0.040700
     22 H52         12.9380    -2.4210    21.6410 hc         1 T10       0.043200
     23 H53         12.1920    -2.6820    23.2120 hc         1 T10       0.043200
     24 H62         14.3970    -1.6460    23.5070 hc         1 T10       0.043700
     25 H63         14.0230    -0.3520    22.3800 hc         1 T10       0.043700
     26 H72         13.4820    -0.4860    25.2590 hc         1 T10       0.043200
     27 H73         13.3430     0.8910    24.1800 hc         1 T10       0.043200
     28 H82         11.1350     0.5140    25.1390 hc         1 T10       0.040700
     29 H83         11.1590    -1.2070    24.7960 hc         1 T10       0.040700
     30 H1           6.9550    -0.4480    22.2840 hn         1 T10       0.339500
     31 C15          4.8250     1.5060    21.6340 cc         1 T10      -0.170100
     32 N3           3.5830     1.9190    19.7350 nd         1 T10      -0.250600
     33 H12          4.7960     1.3220    17.1810 h4         1 T10       0.060100
     34 Cl1          8.5520    -0.5790    18.8540 cl         1 T10      -0.139000
     35 C14          3.6170     2.0010    21.1230 cd         1 T10      -0.000400
     36 H14          2.7760     2.4180    21.6890 h4         1 T10       0.188000
     37 H15          5.1710     1.4210    22.6690 h4         1 T10       0.202000
@<TRIPOS>BOND
     1     1     2 2   
     2     2     3 1   
     3     2    10 1   
     4     3     4 1   
     5     3    17 1   
     6     3    18 1   
     7     4     5 1   
     8     4     9 1   
     9     4    19 1   
    10     5     6 1   
    11     5    20 1   
    12     5    21 1   
    13     6     7 1   
    14     6    22 1   
    15     6    23 1   
    16     7     8 1   
    17     7    24 1   
    18     7    25 1   
    19     8     9 1   
    20     8    26 1   
    21     8    27 1   
    22     9    28 1   
    23     9    29 1   
    24    10    11 1   
    25    10    30 1   
    26    11    12 1   
    27    11    16 2   
    28    12    13 1   
    29    12    31 1   
    30    13    14 1   
    31    13    32 2   
    32    14    15 2   
    33    14    33 1   
    34    15    16 1   
    35    16    34 1   
    36    31    35 2   
    37    31    37 1   
    38    32    35 1   
    39    35    36 1   
@<TRIPOS>SUBSTRUCTURE
     1 T10         1 TEMP              0 ****  ****    0 ROOT
