@<TRIPOS>MOLECULE
S93
   32    33     1     0     0
SMALL
bcc


@<TRIPOS>ATOM
      1 O1           8.7780     0.9810    20.7370 o          1 S93      -0.589100
      2 C1           8.2660     0.0520    21.3820 c          1 S93       0.756100
      3 N1           8.9810    -0.6700    22.3350 ns         1 S93      -0.453100
      4 C2          10.3050    -0.2360    22.6450 ca         1 S93       0.055600
      5 C3          10.4700     0.9130    23.4210 ca         1 S93      -0.156000
      6 C4          11.7530     1.3690    23.6920 ca         1 S93      -0.108500
      7 C5          12.8550     0.6830    23.1950 ca         1 S93      -0.149000
      8 C6          12.6790    -0.4730    22.4440 ca         1 S93      -0.108500
      9 C7          11.4050    -0.9450    22.1580 ca         1 S93      -0.156000
     10 N2           6.9220    -0.3250    21.1790 ns         1 S93      -0.465100
     11 C8           6.2610     0.2500    20.0630 ca         1 S93      -0.025700
     12 C9           5.1310     1.0460    20.2400 ca         1 S93      -0.177000
     13 C10          4.5220     1.5960    19.1020 ca         1 S93       0.044300
     14 C11          5.0970     1.3020    17.8350 ca         1 S93       0.355200
     15 N3           6.1780     0.5290    17.6730 nb         1 S93      -0.621000
     16 C12          6.7610     0.0050    18.7730 ca         1 S93       0.468300
     17 H1           8.6390    -1.5370    22.7440 hn         1 S93       0.308500
     18 H3           9.6000     1.4590    23.8070 ha         1 S93       0.148000
     19 H4          11.8860     2.2800    24.2840 ha         1 S93       0.133500
     20 H5          13.8620     1.0710    23.3720 ha         1 S93       0.133000
     21 H6          13.5520    -1.0080    22.0540 ha         1 S93       0.133500
     22 H7          11.2690    -1.8460    21.5490 ha         1 S93       0.148000
     23 H2           6.3440    -0.6810    21.9440 hn         1 S93       0.307500
     24 H9           4.7570     1.2510    21.2500 ha         1 S93       0.144000
     25 N4           3.3440     2.3290    19.1670 nu         1 S93      -0.724600
     26 H11          4.6950     1.7420    16.9150 h4         1 S93       0.029100
     27 Cl1          8.0040    -0.8500    18.5230 cl         1 S93      -0.134000
     28 C13          2.9200     2.9050    20.4490 c3         1 S93       0.172100
     29 HN4          3.1320     2.8890    18.3400 hn         1 S93       0.405800
     30 H131         2.0660     3.5880    20.2880 h1         1 S93       0.041367
     31 H132         2.5860     2.1110    21.1440 h1         1 S93       0.041367
     32 H133         3.7020     3.4980    20.9610 h1         1 S93       0.041367
@<TRIPOS>BOND
     1     1     2 2   
     2     2     3 1   
     3     2    10 1   
     4     3     4 1   
     5     3    17 1   
     6     4     5 ar  
     7     4     9 ar  
     8     5     6 ar  
     9     5    18 1   
    10     6     7 ar  
    11     6    19 1   
    12     7     8 ar  
    13     7    20 1   
    14     8     9 ar  
    15     8    21 1   
    16     9    22 1   
    17    10    11 1   
    18    10    23 1   
    19    11    12 ar  
    20    11    16 ar  
    21    12    13 ar  
    22    12    24 1   
    23    13    14 ar  
    24    13    25 1   
    25    14    15 ar  
    26    14    26 1   
    27    15    16 ar  
    28    16    27 1   
    29    25    28 1   
    30    25    29 1   
    31    28    30 1   
    32    28    31 1   
    33    28    32 1   
@<TRIPOS>SUBSTRUCTURE
     1 S93         1 TEMP              0 ****  ****    0 ROOT
