@<TRIPOS>MOLECULE
S96
   32    34     1     0     1 
SMALL
USER_CHARGES
@<TRIPOS>ATOM
  1 O1      8.850000    1.002000   20.790000 o     1 S96    -0.5861 ****
  2 C1      8.394000    0.016000   21.392000 c     1 S96     0.7551 ****
  3 N1      9.143000   -0.717000   22.308000 ns    1 S96    -0.4521 ****
  4 C2     10.453000   -0.249000   22.621000 ca    1 S96     0.0526 ****
  5 C3     10.586000    0.907000   23.391000 ca    1 S96    -0.1545 ****
  6 C4     11.858000    1.392000   23.663000 ca    1 S96    -0.1085 ****
  7 C5     12.976000    0.725000   23.176000 ca    1 S96    -0.1480 ****
  8 C6     12.831000   -0.443000   22.437000 ca    1 S96    -0.1085 ****
  9 C7     11.568000   -0.943000   22.148000 ca    1 S96    -0.1545 ****
 10 N2      7.063000   -0.390000   21.200000 ns    1 S96    -0.4671 ****
 11 C8      6.337000    0.185000   20.135000 ca    1 S96    -0.0507 ****
 12 C9      5.174000    0.963000   20.397000 ca    1 S96    -0.1283 ****
 13 C10     4.433000    1.411000   19.290000 ca    1 S96     0.2763 ****
 14 C11     4.932000    1.152000   17.970000 ca    1 S96     0.3939 ****
 15 N3      6.051000    0.483000   17.746000 nb    1 S96    -0.6460 ****
 16 C12     6.746000   -0.011000   18.827000 ca    1 S96     0.5053 ****
 17 H1      8.864000   -1.640000   22.639000 hn    1 S96     0.3065 ****
 18 H3      9.703000    1.434000   23.774000 ha    1 S96     0.1480 ****
 19 H4     11.971000    2.308000   24.253000 ha    1 S96     0.1345 ****
 20 H5     13.973000    1.137000   23.349000 ha    1 S96     0.1340 ****
 21 H6     13.714000   -0.966000   22.060000 ha    1 S96     0.1345 ****
 22 H7     11.452000   -1.854000   21.550000 ha    1 S96     0.1480 ****
 23 H2      6.563000   -1.003000   21.847000 hn    1 S96     0.3085 ****
 24 N4      3.233000    2.087000   19.426000 nb    1 S96    -0.6340 ****
 25 H11     4.394000    1.539000   17.093000 h4    1 S96     0.0501 ****
 26 Cl1     8.006000   -0.796000   18.462000 cl    1 S96    -0.1210 ****
 27 C15     4.725000    1.321000   21.697000 ca    1 S96    -0.0940 ****
 28 H15     5.310000    1.027000   22.579000 ha    1 S96     0.1400 ****
 29 C14     3.574000    2.040000   21.831000 ca    1 S96    -0.2233 ****
 30 H14     3.195000    2.360000   22.813000 ha    1 S96     0.1510 ****
 31 C13     2.834000    2.378000   20.655000 ca    1 S96     0.4082 ****
 32 H13     1.866000    2.911000   20.729000 h4    1 S96     0.0311 ****
@<TRIPOS>BOND
    1     1     2 1
    2     2     3 1
    3     2    10 1
    4     3     4 1
    5     3    17 1
    6     4     5 1
    7     4     9 1
    8     5     6 1
    9     5    18 1
   10     6     7 1
   11     6    19 1
   12     7     8 1
   13     7    20 1
   14     8     9 1
   15     8    21 1
   16     9    22 1
   17    10    11 1
   18    10    23 1
   19    11    12 1
   20    11    16 1
   21    12    13 1
   22    12    27 1
   23    13    14 1
   24    13    24 1
   25    14    15 1
   26    14    25 1
   27    15    16 1
   28    16    26 1
   29    24    31 1
   30    27    28 1
   31    27    29 1
   32    29    30 1
   33    29    31 1
   34    31    32 1
@<TRIPOS>SUBSTRUCTURE
      1  S96              1 ****               0 ****  **** 
