@<TRIPOS>MOLECULE
T12
   37    39     1     0     1 
SMALL
USER_CHARGES
@<TRIPOS>ATOM
  1 O1      9.330000    1.221000   20.994000 o     1 T12    -0.5801 ****
  2 C1      8.732000    0.546000   21.833000 c     1 T12     0.6671 ****
  3 C2      9.328000    0.088000   23.145000 c3    1 T12    -0.1524 ****
  4 C3     10.856000    0.024000   23.046000 c3    1 T12    -0.0627 ****
  5 C4     11.281000   -1.051000   22.041000 c3    1 T12    -0.0769 ****
  6 C5     12.493000   -1.852000   22.506000 c3    1 T12    -0.0749 ****
  7 C6     13.541000   -0.987000   23.187000 c3    1 T12    -0.0774 ****
  8 C7     12.968000   -0.160000   24.335000 c3    1 T12    -0.0749 ****
  9 C8     11.450000   -0.261000   24.425000 c3    1 T12    -0.0769 ****
 10 N1      7.391000    0.214000   21.613000 ns    1 T12    -0.4671 ****
 11 C9      6.766000    0.514000   20.390000 ca    1 T12     0.0493 ****
 12 C10     5.515000    1.147000   20.358000 ca    1 T12    -0.2039 ****
 13 C11     4.946000    1.467000   19.099000 ca    1 T12    -0.1505 ****
 14 C12     5.619000    1.132000   17.907000 ca    1 T12     0.3832 ****
 15 N2      6.797000    0.510000   17.953000 nb    1 T12    -0.6080 ****
 16 C13     7.355000    0.203000   19.161000 ca    1 T12     0.3933 ****
 17 H22     8.921000   -0.898000   23.464000 hc    1 T12     0.0757 ****
 18 H23     9.008000    0.802000   23.936000 hc    1 T12     0.0757 ****
 19 H3     11.242000    1.019000   22.704000 hc    1 T12     0.0667 ****
 20 H42    10.455000   -1.760000   21.813000 hc    1 T12     0.0409 ****
 21 H43    11.477000   -0.574000   21.062000 hc    1 T12     0.0409 ****
 22 H52    12.952000   -2.372000   21.639000 hc    1 T12     0.0425 ****
 23 H53    12.176000   -2.670000   23.187000 hc    1 T12     0.0425 ****
 24 H62    14.364000   -1.635000   23.559000 hc    1 T12     0.0427 ****
 25 H63    14.025000   -0.326000   22.441000 hc    1 T12     0.0427 ****
 26 H72    13.434000   -0.469000   25.293000 hc    1 T12     0.0425 ****
 27 H73    13.261000    0.906000   24.213000 hc    1 T12     0.0425 ****
 28 H82    11.060000    0.451000   25.181000 hc    1 T12     0.0409 ****
 29 H83    11.130000   -1.256000   24.797000 hc    1 T12     0.0409 ****
 30 H1      6.813000   -0.195000   22.351000 hn    1 T12     0.3295 ****
 31 C15     4.560000    1.601000   21.335000 cc    1 T12     0.3848 ****
 32 N3      3.713000    2.056000   19.357000 na    1 T12    -0.0091 ****
 33 H12     5.224000    1.397000   16.924000 h4    1 T12     0.0361 ****
 34 Cl1     8.695000   -0.527000   19.064000 cl    1 T12    -0.1670 ****
 35 N6      3.503000    2.155000   20.704000 nd    1 T12    -0.5101 ****
 36 HN3     3.139000    2.574000   18.689000 hn    1 T12     0.3277 ****
 37 H15     4.630000    1.520000   22.425000 h4    1 T12     0.0818 ****
@<TRIPOS>BOND
    1     1     2 1
    2     2     3 1
    3     2    10 1
    4     3     4 1
    5     3    17 1
    6     3    18 1
    7     4     5 1
    8     4     9 1
    9     4    19 1
   10     5     6 1
   11     5    20 1
   12     5    21 1
   13     6     7 1
   14     6    22 1
   15     6    23 1
   16     7     8 1
   17     7    24 1
   18     7    25 1
   19     8     9 1
   20     8    26 1
   21     8    27 1
   22     9    28 1
   23     9    29 1
   24    10    11 1
   25    10    30 1
   26    11    12 1
   27    11    16 1
   28    12    13 1
   29    12    31 1
   30    13    14 1
   31    13    32 1
   32    14    15 1
   33    14    33 1
   34    15    16 1
   35    16    34 1
   36    31    35 1
   37    31    37 1
   38    32    35 1
   39    32    36 1
@<TRIPOS>SUBSTRUCTURE
      1  T12              1 ****               0 ****  **** 
