@<TRIPOS>MOLECULE
S93
   32    33     1     0     1 
SMALL
USER_CHARGES
@<TRIPOS>ATOM
  1 O1      8.778000    0.981000   20.737000 o     1 S93    -0.5891 ****
  2 C1      8.266000    0.052000   21.382000 c     1 S93     0.7561 ****
  3 N1      8.981000   -0.670000   22.335000 ns    1 S93    -0.4531 ****
  4 C2     10.305000   -0.236000   22.645000 ca    1 S93     0.0556 ****
  5 C3     10.470000    0.913000   23.421000 ca    1 S93    -0.1560 ****
  6 C4     11.753000    1.369000   23.692000 ca    1 S93    -0.1085 ****
  7 C5     12.855000    0.683000   23.195000 ca    1 S93    -0.1490 ****
  8 C6     12.679000   -0.473000   22.444000 ca    1 S93    -0.1085 ****
  9 C7     11.405000   -0.945000   22.158000 ca    1 S93    -0.1560 ****
 10 N2      6.922000   -0.325000   21.179000 ns    1 S93    -0.4651 ****
 11 C8      6.261000    0.250000   20.063000 ca    1 S93    -0.0257 ****
 12 C9      5.131000    1.046000   20.240000 ca    1 S93    -0.1770 ****
 13 C10     4.522000    1.596000   19.102000 ca    1 S93     0.0443 ****
 14 C11     5.097000    1.302000   17.835000 ca    1 S93     0.3552 ****
 15 N3      6.178000    0.529000   17.673000 nb    1 S93    -0.6210 ****
 16 C12     6.761000    0.005000   18.773000 ca    1 S93     0.4683 ****
 17 H1      8.639000   -1.537000   22.744000 hn    1 S93     0.3085 ****
 18 H3      9.600000    1.459000   23.807000 ha    1 S93     0.1480 ****
 19 H4     11.886000    2.280000   24.284000 ha    1 S93     0.1335 ****
 20 H5     13.862000    1.071000   23.372000 ha    1 S93     0.1330 ****
 21 H6     13.552000   -1.008000   22.054000 ha    1 S93     0.1335 ****
 22 H7     11.269000   -1.846000   21.549000 ha    1 S93     0.1480 ****
 23 H2      6.344000   -0.681000   21.944000 hn    1 S93     0.3075 ****
 24 H9      4.757000    1.251000   21.250000 ha    1 S93     0.1440 ****
 25 N4      3.344000    2.329000   19.167000 nu    1 S93    -0.7246 ****
 26 H11     4.695000    1.742000   16.915000 h4    1 S93     0.0291 ****
 27 Cl1     8.004000   -0.850000   18.523000 cl    1 S93    -0.1340 ****
 28 C13     2.920000    2.905000   20.449000 c3    1 S93     0.1721 ****
 29 HN4     3.132000    2.889000   18.340000 hn    1 S93     0.4058 ****
 30 H131    2.066000    3.588000   20.288000 h1    1 S93     0.0414 ****
 31 H132    2.586000    2.111000   21.144000 h1    1 S93     0.0414 ****
 32 H133    3.702000    3.498000   20.961000 h1    1 S93     0.0414 ****
@<TRIPOS>BOND
    1     1     2 1
    2     2     3 1
    3     2    10 1
    4     3     4 1
    5     3    17 1
    6     4     5 1
    7     4     9 1
    8     5     6 1
    9     5    18 1
   10     6     7 1
   11     6    19 1
   12     7     8 1
   13     7    20 1
   14     8     9 1
   15     8    21 1
   16     9    22 1
   17    10    11 1
   18    10    23 1
   19    11    12 1
   20    11    16 1
   21    12    13 1
   22    12    24 1
   23    13    14 1
   24    13    25 1
   25    14    15 1
   26    14    26 1
   27    15    16 1
   28    16    27 1
   29    25    28 1
   30    25    29 1
   31    28    30 1
   32    28    31 1
   33    28    32 1
@<TRIPOS>SUBSTRUCTURE
      1  S93              1 ****               0 ****  **** 
