@<TRIPOS>MOLECULE
T11
   37    39     1     0     0
SMALL
bcc


@<TRIPOS>ATOM
      1 O1           9.3260     1.1650    20.9780 o          1 T11      -0.571100
      2 C1           8.7300     0.5060    21.8320 c          1 T11       0.662100
      3 C2           9.3310     0.0520    23.1410 c3         1 T11      -0.150400
      4 C3          10.8610     0.0240    23.0510 c3         1 T11      -0.057700
      5 C4          11.3170    -1.0290    22.0360 c3         1 T11      -0.075400
      6 C5          12.5180    -1.8370    22.5150 c3         1 T11      -0.074900
      7 C6          13.5590    -0.9790    23.2130 c3         1 T11      -0.076400
      8 C7          12.9700    -0.1330    24.3390 c3         1 T11      -0.074900
      9 C8          11.4540    -0.2570    24.4310 c3         1 T11      -0.075400
     10 N1           7.3870     0.1650    21.6230 ns         1 T11      -0.464100
     11 C9           6.7530     0.4880    20.4100 ca         1 T11       0.008300
     12 C10          5.5280     1.1760    20.3820 ca         1 T11       0.065400
     13 C11          4.9440     1.4920    19.1230 ca         1 T11      -0.191500
     14 C12          5.5840     1.1120    17.9340 ca         1 T11       0.415200
     15 N2           6.7450     0.4520    17.9700 nb         1 T11      -0.635000
     16 C13          7.3100     0.1430    19.1720 ca         1 T11       0.472300
     17 H22          8.9430    -0.9470    23.4470 hc         1 T11       0.072700
     18 H23          8.9870     0.7500    23.9370 hc         1 T11       0.072700
     19 H3          11.2200     1.0340    22.7200 hc         1 T11       0.065700
     20 H42         10.5000    -1.7340    21.7730 hc         1 T11       0.040950
     21 H43         11.5370    -0.5300    21.0730 hc         1 T11       0.040950
     22 H52         12.9870    -2.3550    21.6530 hc         1 T11       0.040200
     23 H53         12.1890    -2.6560    23.1910 hc         1 T11       0.040200
     24 H62         14.3660    -1.6330    23.6080 hc         1 T11       0.041200
     25 H63         14.0710    -0.3320    22.4750 hc         1 T11       0.041200
     26 H72         13.4430    -0.4080    25.3020 hc         1 T11       0.040200
     27 H73         13.2460     0.9340    24.1920 hc         1 T11       0.040200
     28 H82         11.0540     0.4500    25.1880 hc         1 T11       0.040950
     29 H83         11.1490    -1.2570    24.8000 hc         1 T11       0.040950
     30 H1           6.7960    -0.1710    22.3850 hn         1 T11       0.326500
     31 N7           4.7120     1.6570    21.4190 nc         1 T11      -0.573100
     32 N3           3.7520     2.1590    19.4050 na         1 T11      -0.271300
     33 H12          5.1830     1.3690    16.9490 h4         1 T11       0.033100
     34 Cl1          8.6290    -0.6230    19.0710 cl         1 T11      -0.130000
     35 C14          3.6650     2.2520    20.8030 cd         1 T11       0.433700
     36 H14          2.8180     2.7370    21.3290 h5         1 T11       0.074800
     37 HN3          3.2040     2.6660    18.7110 hn         1 T11       0.313700
@<TRIPOS>BOND
     1     1     2 2   
     2     2     3 1   
     3     2    10 1   
     4     3     4 1   
     5     3    17 1   
     6     3    18 1   
     7     4     5 1   
     8     4     9 1   
     9     4    19 1   
    10     5     6 1   
    11     5    20 1   
    12     5    21 1   
    13     6     7 1   
    14     6    22 1   
    15     6    23 1   
    16     7     8 1   
    17     7    24 1   
    18     7    25 1   
    19     8     9 1   
    20     8    26 1   
    21     8    27 1   
    22     9    28 1   
    23     9    29 1   
    24    10    11 1   
    25    10    30 1   
    26    11    12 ar  
    27    11    16 ar  
    28    12    13 ar  
    29    12    31 1   
    30    13    14 ar  
    31    13    32 1   
    32    14    15 ar  
    33    14    33 1   
    34    15    16 ar  
    35    16    34 1   
    36    31    35 2   
    37    32    35 1   
    38    32    37 1   
    39    35    36 1   
@<TRIPOS>SUBSTRUCTURE
     1 T11         1 TEMP              0 ****  ****    0 ROOT
