@<TRIPOS>MOLECULE
T03
   36    37     1     0     0
SMALL
bcc


@<TRIPOS>ATOM
      1 O1           9.3170     1.1530    20.9980 o          1 T03      -0.590100
      2 C1           8.7310     0.4500    21.8320 c          1 T03       0.670100
      3 C2           9.3420    -0.0020    23.1400 c3         1 T03      -0.152400
      4 C3          10.8710     0.0080    23.0540 c3         1 T03      -0.061700
      5 C4          11.3510    -1.0230    22.0300 c3         1 T03      -0.075900
      6 C5          12.5450    -1.8350    22.5170 c3         1 T03      -0.074900
      7 C6          13.5810    -0.9800    23.2300 c3         1 T03      -0.077400
      8 C7          12.9800    -0.1230    24.3430 c3         1 T03      -0.074900
      9 C8          11.4670    -0.2670    24.4330 c3         1 T03      -0.075900
     10 N1           7.4080     0.0740    21.6080 ns         1 T03      -0.467100
     11 C9           6.7490     0.4230    20.4080 ca         1 T03       0.019300
     12 C10          5.5300     1.0880    20.4530 ca         1 T03      -0.198000
     13 C11          4.9110     1.4320    19.2420 ca         1 T03       0.068300
     14 C12          5.5500     1.0600    18.0370 ca         1 T03       0.313200
     15 N2           6.7250     0.4090    17.9960 nb         1 T03      -0.599000
     16 C13          7.3230     0.1000    19.1620 ca         1 T03       0.386300
     17 H22          8.9780    -1.0110    23.4410 hc         1 T03       0.074700
     18 H23          8.9810     0.6830    23.9420 hc         1 T03       0.074700
     19 H3          11.2060     1.0290    22.7310 hc         1 T03       0.065700
     20 H42         10.5430    -1.7270    21.7340 hc         1 T03       0.040950
     21 H43         11.5900    -0.5050    21.0820 hc         1 T03       0.040950
     22 H52         13.0250    -2.3490    21.6580 hc         1 T03       0.041700
     23 H53         12.2090    -2.6570    23.1840 hc         1 T03       0.041700
     24 H62         14.3780    -1.6370    23.6420 hc         1 T03       0.042200
     25 H63         14.1070    -0.3360    22.4950 hc         1 T03       0.042200
     26 H72         13.4550    -0.3800    25.3110 hc         1 T03       0.041700
     27 H73         13.2420     0.9450    24.1800 hc         1 T03       0.041700
     28 H82         11.0560     0.4320    25.1900 hc         1 T03       0.040950
     29 H83         11.1740    -1.2720    24.7990 hc         1 T03       0.040950
     30 H1           6.8490    -0.3720    22.3390 hn         1 T03       0.332500
     31 H10          5.0580     1.3400    21.4150 ha         1 T03       0.182000
     32 N3           3.6790     2.0670    19.2300 nv         1 T03      -0.819200
     33 H12          5.1220     1.3100    17.0580 h4         1 T03       0.029100
     34 Cl1          8.6600    -0.6320    19.0450 cl         1 T03      -0.173000
     35 H31          3.4330     2.6200    20.0380 hn         1 T03       0.403800
     36 H32          3.3790     2.4670    18.3470 hn         1 T03       0.403800
@<TRIPOS>BOND
     1     1     2 2   
     2     2     3 1   
     3     2    10 1   
     4     3     4 1   
     5     3    17 1   
     6     3    18 1   
     7     4     5 1   
     8     4     9 1   
     9     4    19 1   
    10     5     6 1   
    11     5    20 1   
    12     5    21 1   
    13     6     7 1   
    14     6    22 1   
    15     6    23 1   
    16     7     8 1   
    17     7    24 1   
    18     7    25 1   
    19     8     9 1   
    20     8    26 1   
    21     8    27 1   
    22     9    28 1   
    23     9    29 1   
    24    10    11 1   
    25    10    30 1   
    26    11    12 ar  
    27    11    16 ar  
    28    12    13 ar  
    29    12    31 1   
    30    13    14 ar  
    31    13    32 1   
    32    14    15 ar  
    33    14    33 1   
    34    15    16 ar  
    35    16    34 1   
    36    32    35 1   
    37    32    36 1   
@<TRIPOS>SUBSTRUCTURE
     1 T03         1 TEMP              0 ****  ****    0 ROOT
