@<TRIPOS>MOLECULE
S35
   33    35     1     0     1 
SMALL
USER_CHARGES
@<TRIPOS>ATOM
  1 O1     -0.370000    7.920000   -7.521000 o     1 S35    -0.5881 ****
  2 C1      0.290000    7.304000   -8.363000 c     1 S35     0.7401 ****
  3 N1      0.596000    5.939000   -8.231000 ns    1 S35    -0.4501 ****
  4 C2      0.224000    5.290000   -7.048000 cc    1 S35     0.0003 ****
  5 C3     -1.050000    5.403000   -6.595000 cd    1 S35    -0.0603 ****
  6 N2     -1.395000    5.111000   -5.284000 na    1 S35    -0.2081 ****
  7 C4     -0.356000    5.016000   -4.366000 cc    1 S35    -0.2476 ****
  8 C5      0.929000    4.844000   -4.761000 cd    1 S35     0.4658 ****
  9 N3      1.179000    4.727000   -6.161000 na    1 S35    -0.2419 ****
 10 C6      2.308000    4.009000   -6.507000 cc    1 S35     0.0337 ****
 11 C7      3.253000    3.695000   -5.609000 cd    1 S35    -0.3933 ****
 12 C8      3.042000    4.310000   -4.271000 cc    1 S35     0.4732 ****
 13 N4      1.936000    4.803000   -3.814000 nd    1 S35    -0.6810 ****
 14 N5      0.815000    7.869000   -9.498000 ns    1 S35    -0.4541 ****
 15 C9      0.832000    9.260000   -9.786000 ca    1 S35     0.0506 ****
 16 C10     0.529000   10.254000   -8.850000 ca    1 S35    -0.1545 ****
 17 C11     0.580000   11.613000   -9.185000 ca    1 S35    -0.1085 ****
 18 C12     0.948000   11.994000  -10.471000 ca    1 S35    -0.1470 ****
 19 C13     1.259000   11.021000  -11.414000 ca    1 S35    -0.1085 ****
 20 C14     1.206000    9.664000  -11.083000 ca    1 S35    -0.1545 ****
 21 H1      1.547000    5.752000   -8.508000 hn    1 S35     0.3035 ****
 22 H2     -1.857000    5.862000   -7.172000 h4    1 S35     0.1700 ****
 23 H3     -2.241000    5.556000   -4.945000 hn    1 S35     0.2427 ****
 24 H4     -0.640000    5.116000   -3.323000 h4    1 S35     0.1780 ****
 25 H5      2.308000    3.602000   -7.513000 h4    1 S35     0.1520 ****
 26 H6      4.095000    3.045000   -5.780000 ha    1 S35     0.1550 ****
 27 H7      3.938000    4.329000   -3.623000 h4    1 S35     0.0231 ****
 28 H8      1.049000    7.235000  -10.247000 hn    1 S35     0.3075 ****
 29 H9      0.251000   10.016000   -7.827000 ha    1 S35     0.1485 ****
 30 H10     0.337000   12.359000   -8.444000 ha    1 S35     0.1350 ****
 31 H11     0.992000   13.048000  -10.732000 ha    1 S35     0.1350 ****
 32 H12     1.547000   11.314000  -12.424000 ha    1 S35     0.1350 ****
 33 H13     1.449000    8.925000  -11.838000 ha    1 S35     0.1485 ****
@<TRIPOS>BOND
    1     1     2 1
    2     2     3 1
    3     2    14 1
    4     3     4 1
    5     3    21 1
    6     4     5 1
    7     4     9 1
    8     5     6 1
    9     5    22 1
   10     6     7 1
   11     6    23 1
   12     7     8 1
   13     7    24 1
   14     8     9 1
   15     8    13 1
   16     9    10 1
   17    10    11 1
   18    10    25 1
   19    11    12 1
   20    11    26 1
   21    12    13 1
   22    12    27 1
   23    14    15 1
   24    14    28 1
   25    15    16 1
   26    15    20 1
   27    16    17 1
   28    16    29 1
   29    17    18 1
   30    17    30 1
   31    18    19 1
   32    18    31 1
   33    19    20 1
   34    19    32 1
   35    20    33 1
@<TRIPOS>SUBSTRUCTURE
      1  S35              1 ****               0 ****  **** 
