@<TRIPOS>MOLECULE
S40
   40    42     1     0     0
SMALL
bcc


@<TRIPOS>ATOM
      1 O1          -0.1760    -1.6590     0.9640 o          1 S40      -0.580100
      2 C1          -0.6070    -2.7430     0.6240 c          1 S40       0.668100
      3 N1           0.1570    -3.8480     0.2500 ns         1 S40      -0.475100
      4 C2           1.5270    -4.0290     0.0440 cc         1 S40      -0.075700
      5 C3           1.9250    -5.2410    -0.4340 cd         1 S40       0.370200
      6 N2           3.2210    -5.6320    -0.7180 nd         1 S40      -0.727000
      7 C4           4.1210    -4.8640    -0.1800 cc         1 S40       0.578400
      8 N3           3.8880    -3.7350     0.5890 na         1 S40      -0.265200
      9 C5           2.6310    -3.0920     0.3610 cc         1 S40       0.053700
     10 C6           2.6350    -1.7360     0.3290 cd         1 S40      -0.220000
     11 C7           3.8610    -0.9930     0.6470 cd         1 S40      -0.110000
     12 C8           4.9450    -1.6570     1.0910 cc         1 S40      -0.196300
     13 N4           4.9830    -3.0350     1.1130 na         1 S40      -0.119400
     14 C9          -2.1200    -3.0460     0.5500 c3         1 S40      -0.147400
     15 C10         -3.2060    -1.9450     0.7270 c3         1 S40      -0.048700
     16 C11         -3.3260    -1.3020     2.1200 c3         1 S40      -0.069900
     17 C12         -2.4870    -0.0460     2.3320 c3         1 S40      -0.083400
     18 C13         -2.6750     0.9700     1.2130 c3         1 S40      -0.076400
     19 C14         -2.4460     0.3550    -0.1660 c3         1 S40      -0.083400
     20 C15         -3.2960    -0.8900    -0.3920 c3         1 S40      -0.069900
     21 H1          -0.3870    -4.6920     0.1040 hn         1 S40       0.315500
     22 H2           1.2000    -6.0170    -0.6580 h4         1 S40       0.024100
     23 H3           5.1960    -5.0470    -0.3700 h5         1 S40       0.059100
     24 H4           1.7830    -1.1500     0.0190 ha         1 S40       0.161000
     25 H5           3.8540     0.0870     0.5720 ha         1 S40       0.145000
     26 H6           5.8510    -1.1740     1.4290 h4         1 S40       0.163000
     27 H7           5.3060    -3.4130     2.0130 hn         1 S40       0.204700
     28 H8          -2.3190    -3.8310     1.2930 hc         1 S40       0.064700
     29 H9          -2.2980    -3.5090    -0.4320 hc         1 S40       0.064700
     30 H10         -4.1390    -2.5250     0.6210 hc         1 S40       0.043700
     31 H11         -3.1220    -2.0350     2.9080 hc         1 S40       0.040200
     32 H12         -4.3780    -1.0050     2.2550 hc         1 S40       0.040200
     33 H13         -1.4310    -0.3080     2.4220 hc         1 S40       0.048200
     34 H14         -2.7630     0.4180     3.2870 hc         1 S40       0.048200
     35 H15         -1.9870     1.8120     1.3600 hc         1 S40       0.039200
     36 H16         -3.6900     1.3860     1.2650 hc         1 S40       0.039200
     37 H17         -1.3880     0.1190    -0.2960 hc         1 S40       0.048200
     38 H18         -2.6930     1.1030    -0.9300 hc         1 S40       0.048200
     39 H19         -3.0670    -1.3340    -1.3650 hc         1 S40       0.040200
     40 H20         -4.3450    -0.5580    -0.4480 hc         1 S40       0.040200
@<TRIPOS>BOND
     1     1     2 2   
     2     2     3 1   
     3     2    14 1   
     4     3     4 1   
     5     3    21 1   
     6     4     5 2   
     7     4     9 1   
     8     5     6 1   
     9     5    22 1   
    10     6     7 2   
    11     7     8 1   
    12     7    23 1   
    13     8     9 1   
    14     8    13 1   
    15     9    10 2   
    16    10    11 1   
    17    10    24 1   
    18    11    12 2   
    19    11    25 1   
    20    12    13 1   
    21    12    26 1   
    22    13    27 1   
    23    14    15 1   
    24    14    28 1   
    25    14    29 1   
    26    15    16 1   
    27    15    20 1   
    28    15    30 1   
    29    16    17 1   
    30    16    31 1   
    31    16    32 1   
    32    17    18 1   
    33    17    33 1   
    34    17    34 1   
    35    18    19 1   
    36    18    35 1   
    37    18    36 1   
    38    19    20 1   
    39    19    37 1   
    40    19    38 1   
    41    20    39 1   
    42    20    40 1   
@<TRIPOS>SUBSTRUCTURE
     1 S40         1 TEMP              0 ****  ****    0 ROOT
