@<TRIPOS>MOLECULE
S40
   40    42     1     0     1 
SMALL
USER_CHARGES
@<TRIPOS>ATOM
  1 O1     -0.176000   -1.659000    0.964000 o     1 S40    -0.5801 ****
  2 C1     -0.607000   -2.743000    0.624000 c     1 S40     0.6681 ****
  3 N1      0.157000   -3.848000    0.250000 ns    1 S40    -0.4751 ****
  4 C2      1.527000   -4.029000    0.044000 cc    1 S40    -0.0757 ****
  5 C3      1.925000   -5.241000   -0.434000 cd    1 S40     0.3702 ****
  6 N2      3.221000   -5.632000   -0.718000 nd    1 S40    -0.7270 ****
  7 C4      4.121000   -4.864000   -0.180000 cc    1 S40     0.5784 ****
  8 N3      3.888000   -3.735000    0.589000 na    1 S40    -0.2652 ****
  9 C5      2.631000   -3.092000    0.361000 cc    1 S40     0.0537 ****
 10 C6      2.635000   -1.736000    0.329000 cd    1 S40    -0.2200 ****
 11 C7      3.861000   -0.993000    0.647000 cd    1 S40    -0.1100 ****
 12 C8      4.945000   -1.657000    1.091000 cc    1 S40    -0.1963 ****
 13 N4      4.983000   -3.035000    1.113000 na    1 S40    -0.1194 ****
 14 C9     -2.120000   -3.046000    0.550000 c3    1 S40    -0.1474 ****
 15 C10    -3.206000   -1.945000    0.727000 c3    1 S40    -0.0487 ****
 16 C11    -3.326000   -1.302000    2.120000 c3    1 S40    -0.0699 ****
 17 C12    -2.487000   -0.046000    2.332000 c3    1 S40    -0.0834 ****
 18 C13    -2.675000    0.970000    1.213000 c3    1 S40    -0.0764 ****
 19 C14    -2.446000    0.355000   -0.166000 c3    1 S40    -0.0834 ****
 20 C15    -3.296000   -0.890000   -0.392000 c3    1 S40    -0.0699 ****
 21 H1     -0.387000   -4.692000    0.104000 hn    1 S40     0.3155 ****
 22 H2      1.200000   -6.017000   -0.658000 h4    1 S40     0.0241 ****
 23 H3      5.196000   -5.047000   -0.370000 h5    1 S40     0.0591 ****
 24 H4      1.783000   -1.150000    0.019000 ha    1 S40     0.1610 ****
 25 H5      3.854000    0.087000    0.572000 ha    1 S40     0.1450 ****
 26 H6      5.851000   -1.174000    1.429000 h4    1 S40     0.1630 ****
 27 H7      5.306000   -3.413000    2.013000 hn    1 S40     0.2047 ****
 28 H8     -2.319000   -3.831000    1.293000 hc    1 S40     0.0647 ****
 29 H9     -2.298000   -3.509000   -0.432000 hc    1 S40     0.0647 ****
 30 H10    -4.139000   -2.525000    0.621000 hc    1 S40     0.0437 ****
 31 H11    -3.122000   -2.035000    2.908000 hc    1 S40     0.0402 ****
 32 H12    -4.378000   -1.005000    2.255000 hc    1 S40     0.0402 ****
 33 H13    -1.431000   -0.308000    2.422000 hc    1 S40     0.0482 ****
 34 H14    -2.763000    0.418000    3.287000 hc    1 S40     0.0482 ****
 35 H15    -1.987000    1.812000    1.360000 hc    1 S40     0.0392 ****
 36 H16    -3.690000    1.386000    1.265000 hc    1 S40     0.0392 ****
 37 H17    -1.388000    0.119000   -0.296000 hc    1 S40     0.0482 ****
 38 H18    -2.693000    1.103000   -0.930000 hc    1 S40     0.0482 ****
 39 H19    -3.067000   -1.334000   -1.365000 hc    1 S40     0.0402 ****
 40 H20    -4.345000   -0.558000   -0.448000 hc    1 S40     0.0402 ****
@<TRIPOS>BOND
    1     1     2 1
    2     2     3 1
    3     2    14 1
    4     3     4 1
    5     3    21 1
    6     4     5 1
    7     4     9 1
    8     5     6 1
    9     5    22 1
   10     6     7 1
   11     7     8 1
   12     7    23 1
   13     8     9 1
   14     8    13 1
   15     9    10 1
   16    10    11 1
   17    10    24 1
   18    11    12 1
   19    11    25 1
   20    12    13 1
   21    12    26 1
   22    13    27 1
   23    14    15 1
   24    14    28 1
   25    14    29 1
   26    15    16 1
   27    15    20 1
   28    15    30 1
   29    16    17 1
   30    16    31 1
   31    16    32 1
   32    17    18 1
   33    17    33 1
   34    17    34 1
   35    18    19 1
   36    18    35 1
   37    18    36 1
   38    19    20 1
   39    19    37 1
   40    19    38 1
   41    20    39 1
   42    20    40 1
@<TRIPOS>SUBSTRUCTURE
      1  S40              1 ****               0 ****  **** 
