@<TRIPOS>MOLECULE
S35
   33    35     1     0     0
SMALL
bcc


@<TRIPOS>ATOM
      1 O1          -0.3700     7.9200    -7.5210 o          1 S35      -0.588100
      2 C1           0.2900     7.3040    -8.3630 c          1 S35       0.740100
      3 N1           0.5960     5.9390    -8.2310 ns         1 S35      -0.450100
      4 C2           0.2240     5.2900    -7.0480 cc         1 S35       0.000300
      5 C3          -1.0500     5.4030    -6.5950 cd         1 S35      -0.060300
      6 N2          -1.3950     5.1110    -5.2840 na         1 S35      -0.208100
      7 C4          -0.3560     5.0160    -4.3660 cc         1 S35      -0.247600
      8 C5           0.9290     4.8440    -4.7610 cd         1 S35       0.465800
      9 N3           1.1790     4.7270    -6.1610 na         1 S35      -0.241900
     10 C6           2.3080     4.0090    -6.5070 cc         1 S35       0.033700
     11 C7           3.2530     3.6950    -5.6090 cd         1 S35      -0.393300
     12 C8           3.0420     4.3100    -4.2710 cc         1 S35       0.473200
     13 N4           1.9360     4.8030    -3.8140 nd         1 S35      -0.681000
     14 N5           0.8150     7.8690    -9.4980 ns         1 S35      -0.454100
     15 C9           0.8320     9.2600    -9.7860 ca         1 S35       0.050600
     16 C10          0.5290    10.2540    -8.8500 ca         1 S35      -0.154500
     17 C11          0.5800    11.6130    -9.1850 ca         1 S35      -0.108500
     18 C12          0.9480    11.9940   -10.4710 ca         1 S35      -0.147000
     19 C13          1.2590    11.0210   -11.4140 ca         1 S35      -0.108500
     20 C14          1.2060     9.6640   -11.0830 ca         1 S35      -0.154500
     21 H1           1.5470     5.7520    -8.5080 hn         1 S35       0.303500
     22 H2          -1.8570     5.8620    -7.1720 h4         1 S35       0.170000
     23 H3          -2.2410     5.5560    -4.9450 hn         1 S35       0.242700
     24 H4          -0.6400     5.1160    -3.3230 h4         1 S35       0.178000
     25 H5           2.3080     3.6020    -7.5130 h4         1 S35       0.152000
     26 H6           4.0950     3.0450    -5.7800 ha         1 S35       0.155000
     27 H7           3.9380     4.3290    -3.6230 h4         1 S35       0.023100
     28 H8           1.0490     7.2350   -10.2470 hn         1 S35       0.307500
     29 H9           0.2510    10.0160    -7.8270 ha         1 S35       0.148500
     30 H10          0.3370    12.3590    -8.4440 ha         1 S35       0.135000
     31 H11          0.9920    13.0480   -10.7320 ha         1 S35       0.135000
     32 H12          1.5470    11.3140   -12.4240 ha         1 S35       0.135000
     33 H13          1.4490     8.9250   -11.8380 ha         1 S35       0.148500
@<TRIPOS>BOND
     1     1     2 2   
     2     2     3 1   
     3     2    14 1   
     4     3     4 1   
     5     3    21 1   
     6     4     5 2   
     7     4     9 1   
     8     5     6 1   
     9     5    22 1   
    10     6     7 1   
    11     6    23 1   
    12     7     8 2   
    13     7    24 1   
    14     8     9 1   
    15     8    13 1   
    16     9    10 1   
    17    10    11 2   
    18    10    25 1   
    19    11    12 1   
    20    11    26 1   
    21    12    13 2   
    22    12    27 1   
    23    14    15 1   
    24    14    28 1   
    25    15    16 ar  
    26    15    20 ar  
    27    16    17 ar  
    28    16    29 1   
    29    17    18 ar  
    30    17    30 1   
    31    18    19 ar  
    32    18    31 1   
    33    19    20 ar  
    34    19    32 1   
    35    20    33 1   
@<TRIPOS>SUBSTRUCTURE
     1 S35         1 TEMP              0 ****  ****    0 ROOT
