@<TRIPOS>MOLECULE
S28
   33    35     1     0     1 
SMALL
USER_CHARGES
@<TRIPOS>ATOM
  1 O1     -0.922000   -2.471000   -2.006000 o     1 S28    -0.5921 ****
  2 C1     -0.719000   -1.470000   -2.674000 c     1 S28     0.7501 ****
  3 N1      0.146000   -1.366000   -3.754000 ns    1 S28    -0.4481 ****
  4 C2      1.171000   -2.173000   -4.215000 cc    1 S28    -0.1077 ****
  5 C3      1.826000   -1.768000   -5.336000 cd    1 S28     0.4022 ****
  6 N2      2.862000   -2.436000   -5.959000 nd    1 S28    -0.7370 ****
  7 C4      2.977000   -3.674000   -5.585000 cc    1 S28     0.5944 ****
  8 N3      2.213000   -4.321000   -4.623000 na    1 S28    -0.2662 ****
  9 C5      1.625000   -3.460000   -3.655000 cc    1 S28     0.0677 ****
 10 C6      1.740000   -3.824000   -2.358000 cd    1 S28    -0.2250 ****
 11 C7      2.327000   -5.121000   -1.999000 cd    1 S28    -0.1080 ****
 12 C8      2.618000   -6.000000   -2.980000 cc    1 S28    -0.1973 ****
 13 N4      2.506000   -5.648000   -4.312000 na    1 S28    -0.1134 ****
 14 N5     -1.252000   -0.199000   -2.418000 ns    1 S28    -0.4581 ****
 15 C9     -2.030000    0.149000   -1.292000 ca    1 S28     0.0576 ****
 16 C10    -1.780000    1.395000   -0.699000 ca    1 S28    -0.1570 ****
 17 C11    -2.477000    1.793000    0.445000 ca    1 S28    -0.1085 ****
 18 C12    -3.471000    0.972000    0.970000 ca    1 S28    -0.1500 ****
 19 C13    -3.756000   -0.248000    0.357000 ca    1 S28    -0.1085 ****
 20 C14    -3.027000   -0.669000   -0.764000 ca    1 S28    -0.1570 ****
 21 H1     -0.120000   -0.625000   -4.387000 hn    1 S28     0.3015 ****
 22 H2      1.563000   -0.835000   -5.825000 h4    1 S28     0.0271 ****
 23 H3      3.788000   -4.303000   -5.986000 h5    1 S28     0.0611 ****
 24 H4      1.459000   -3.160000   -1.538000 ha    1 S28     0.1580 ****
 25 H5      2.501000   -5.362000   -0.965000 ha    1 S28     0.1460 ****
 26 H6      2.982000   -7.006000   -2.801000 h4    1 S28     0.1640 ****
 27 H7      1.936000   -6.317000   -4.840000 hn    1 S28     0.2017 ****
 28 H8     -0.693000    0.554000   -2.789000 hn    1 S28     0.3065 ****
 29 H9     -1.005000    2.050000   -1.085000 ha    1 S28     0.1480 ****
 30 H10    -2.237000    2.737000    0.928000 ha    1 S28     0.1335 ****
 31 H11    -4.020000    1.283000    1.856000 ha    1 S28     0.1330 ****
 32 H12    -4.547000   -0.878000    0.757000 ha    1 S28     0.1335 ****
 33 H13    -3.270000   -1.622000   -1.226000 ha    1 S28     0.1480 ****
@<TRIPOS>BOND
    1     1     2 1
    2     2     3 1
    3     2    14 1
    4     3     4 1
    5     3    21 1
    6     4     5 1
    7     4     9 1
    8     5     6 1
    9     5    22 1
   10     6     7 1
   11     7     8 1
   12     7    23 1
   13     8     9 1
   14     8    13 1
   15     9    10 1
   16    10    11 1
   17    10    24 1
   18    11    12 1
   19    11    25 1
   20    12    13 1
   21    12    26 1
   22    13    27 1
   23    14    15 1
   24    14    28 1
   25    15    16 1
   26    15    20 1
   27    16    17 1
   28    16    29 1
   29    17    18 1
   30    17    30 1
   31    18    19 1
   32    18    31 1
   33    19    20 1
   34    19    32 1
   35    20    33 1
@<TRIPOS>SUBSTRUCTURE
      1  S28              1 ****               0 ****  **** 
