@<TRIPOS>MOLECULE
S47
   40    42     1     0     1 
SMALL
USER_CHARGES
@<TRIPOS>ATOM
  1 O1     -0.416000    8.463000   -7.453000 o     1 S47    -0.5771 ****
  2 C1      0.022000    7.622000   -8.244000 c     1 S47     0.6611 ****
  3 N1      0.301000    6.318000   -7.908000 ns    1 S47    -0.4991 ****
  4 C2      0.482000    5.785000   -6.635000 cc    1 S47     0.0423 ****
  5 C3      0.627000    6.562000   -5.529000 cd    1 S47    -0.1243 ****
  6 N2      1.027000    6.037000   -4.307000 na    1 S47    -0.1961 ****
  7 C4      1.538000    4.753000   -4.272000 cc    1 S47    -0.2396 ****
  8 C5      1.414000    3.914000   -5.327000 cd    1 S47     0.4538 ****
  9 N3      0.692000    4.387000   -6.468000 na    1 S47    -0.2219 ****
 10 C6      0.021000    3.402000   -7.174000 cc    1 S47     0.0397 ****
 11 C7      0.297000    2.098000   -7.026000 cd    1 S47    -0.3873 ****
 12 C8      1.449000    1.827000   -6.128000 cc    1 S47     0.4702 ****
 13 N4      1.961000    2.647000   -5.265000 nd    1 S47    -0.6800 ****
 14 C9      0.394000    8.083000   -9.655000 c3    1 S47    -0.1534 ****
 15 C10     0.466000    7.105000  -10.838000 c3    1 S47    -0.0567 ****
 16 C11    -0.879000    6.479000  -11.221000 c3    1 S47    -0.0744 ****
 17 C12    -1.868000    7.464000  -11.840000 c3    1 S47    -0.0779 ****
 18 C13    -1.280000    8.339000  -12.946000 c3    1 S47    -0.0774 ****
 19 C14     0.111000    8.883000  -12.645000 c3    1 S47    -0.0779 ****
 20 C15     1.044000    7.807000  -12.089000 c3    1 S47    -0.0744 ****
 21 H1      0.479000    5.658000   -8.646000 hn    1 S47     0.3245 ****
 22 H2      0.532000    7.642000   -5.515000 h4    1 S47     0.1600 ****
 23 H3      1.314000    6.685000   -3.583000 hn    1 S47     0.2297 ****
 24 H4      2.036000    4.466000   -3.355000 h4    1 S47     0.1770 ****
 25 H5     -0.836000    3.745000   -7.747000 h4    1 S47     0.1560 ****
 26 H6     -0.267000    1.283000   -7.455000 ha    1 S47     0.1530 ****
 27 H7      1.885000    0.811000   -6.222000 h4    1 S47     0.0221 ****
 28 H8      1.373000    8.563000   -9.547000 hc    1 S47     0.0762 ****
 29 H9     -0.320000    8.883000   -9.893000 hc    1 S47     0.0762 ****
 30 H10     1.160000    6.290000  -10.575000 hc    1 S47     0.0397 ****
 31 H11    -1.341000    6.001000  -10.343000 hc    1 S47     0.0434 ****
 32 H12    -0.695000    5.675000  -11.942000 hc    1 S47     0.0434 ****
 33 H13    -2.281000    8.110000  -11.051000 hc    1 S47     0.0442 ****
 34 H14    -2.716000    6.904000  -12.250000 hc    1 S47     0.0442 ****
 35 H15    -1.960000    9.178000  -13.141000 hc    1 S47     0.0417 ****
 36 H16    -1.238000    7.759000  -13.877000 hc    1 S47     0.0417 ****
 37 H17     0.038000    9.720000  -11.941000 hc    1 S47     0.0442 ****
 38 H18     0.542000    9.300000  -13.563000 hc    1 S47     0.0442 ****
 39 H19     2.018000    8.257000  -11.857000 hc    1 S47     0.0434 ****
 40 H20     1.228000    7.062000  -12.871000 hc    1 S47     0.0434 ****
@<TRIPOS>BOND
    1     1     2 1
    2     2     3 1
    3     2    14 1
    4     3     4 1
    5     3    21 1
    6     4     5 1
    7     4     9 1
    8     5     6 1
    9     5    22 1
   10     6     7 1
   11     6    23 1
   12     7     8 1
   13     7    24 1
   14     8     9 1
   15     8    13 1
   16     9    10 1
   17    10    11 1
   18    10    25 1
   19    11    12 1
   20    11    26 1
   21    12    13 1
   22    12    27 1
   23    14    15 1
   24    14    28 1
   25    14    29 1
   26    15    16 1
   27    15    20 1
   28    15    30 1
   29    16    17 1
   30    16    31 1
   31    16    32 1
   32    17    18 1
   33    17    33 1
   34    17    34 1
   35    18    19 1
   36    18    35 1
   37    18    36 1
   38    19    20 1
   39    19    37 1
   40    19    38 1
   41    20    39 1
   42    20    40 1
@<TRIPOS>SUBSTRUCTURE
      1  S47              1 ****               0 ****  **** 
