@<TRIPOS>MOLECULE
S47
   40    42     1     0     0
SMALL
bcc


@<TRIPOS>ATOM
      1 O1          -0.4160     8.4630    -7.4530 o          1 S47      -0.577100
      2 C1           0.0220     7.6220    -8.2440 c          1 S47       0.661100
      3 N1           0.3010     6.3180    -7.9080 ns         1 S47      -0.499100
      4 C2           0.4820     5.7850    -6.6350 cc         1 S47       0.042300
      5 C3           0.6270     6.5620    -5.5290 cd         1 S47      -0.124300
      6 N2           1.0270     6.0370    -4.3070 na         1 S47      -0.196100
      7 C4           1.5380     4.7530    -4.2720 cc         1 S47      -0.239600
      8 C5           1.4140     3.9140    -5.3270 cd         1 S47       0.453800
      9 N3           0.6920     4.3870    -6.4680 na         1 S47      -0.221900
     10 C6           0.0210     3.4020    -7.1740 cc         1 S47       0.039700
     11 C7           0.2970     2.0980    -7.0260 cd         1 S47      -0.387300
     12 C8           1.4490     1.8270    -6.1280 cc         1 S47       0.470200
     13 N4           1.9610     2.6470    -5.2650 nd         1 S47      -0.680000
     14 C9           0.3940     8.0830    -9.6550 c3         1 S47      -0.153400
     15 C10          0.4660     7.1050   -10.8380 c3         1 S47      -0.056700
     16 C11         -0.8790     6.4790   -11.2210 c3         1 S47      -0.074400
     17 C12         -1.8680     7.4640   -11.8400 c3         1 S47      -0.077900
     18 C13         -1.2800     8.3390   -12.9460 c3         1 S47      -0.077400
     19 C14          0.1110     8.8830   -12.6450 c3         1 S47      -0.077900
     20 C15          1.0440     7.8070   -12.0890 c3         1 S47      -0.074400
     21 H1           0.4790     5.6580    -8.6460 hn         1 S47       0.324500
     22 H2           0.5320     7.6420    -5.5150 h4         1 S47       0.160000
     23 H3           1.3140     6.6850    -3.5830 hn         1 S47       0.229700
     24 H4           2.0360     4.4660    -3.3550 h4         1 S47       0.177000
     25 H5          -0.8360     3.7450    -7.7470 h4         1 S47       0.156000
     26 H6          -0.2670     1.2830    -7.4550 ha         1 S47       0.153000
     27 H7           1.8850     0.8110    -6.2220 h4         1 S47       0.022100
     28 H8           1.3730     8.5630    -9.5470 hc         1 S47       0.076200
     29 H9          -0.3200     8.8830    -9.8930 hc         1 S47       0.076200
     30 H10          1.1600     6.2900   -10.5750 hc         1 S47       0.039700
     31 H11         -1.3410     6.0010   -10.3430 hc         1 S47       0.043450
     32 H12         -0.6950     5.6750   -11.9420 hc         1 S47       0.043450
     33 H13         -2.2810     8.1100   -11.0510 hc         1 S47       0.044200
     34 H14         -2.7160     6.9040   -12.2500 hc         1 S47       0.044200
     35 H15         -1.9600     9.1780   -13.1410 hc         1 S47       0.041700
     36 H16         -1.2380     7.7590   -13.8770 hc         1 S47       0.041700
     37 H17          0.0380     9.7200   -11.9410 hc         1 S47       0.044200
     38 H18          0.5420     9.3000   -13.5630 hc         1 S47       0.044200
     39 H19          2.0180     8.2570   -11.8570 hc         1 S47       0.043450
     40 H20          1.2280     7.0620   -12.8710 hc         1 S47       0.043450
@<TRIPOS>BOND
     1     1     2 2   
     2     2     3 1   
     3     2    14 1   
     4     3     4 1   
     5     3    21 1   
     6     4     5 2   
     7     4     9 1   
     8     5     6 1   
     9     5    22 1   
    10     6     7 1   
    11     6    23 1   
    12     7     8 2   
    13     7    24 1   
    14     8     9 1   
    15     8    13 1   
    16     9    10 1   
    17    10    11 2   
    18    10    25 1   
    19    11    12 1   
    20    11    26 1   
    21    12    13 2   
    22    12    27 1   
    23    14    15 1   
    24    14    28 1   
    25    14    29 1   
    26    15    16 1   
    27    15    20 1   
    28    15    30 1   
    29    16    17 1   
    30    16    31 1   
    31    16    32 1   
    32    17    18 1   
    33    17    33 1   
    34    17    34 1   
    35    18    19 1   
    36    18    35 1   
    37    18    36 1   
    38    19    20 1   
    39    19    37 1   
    40    19    38 1   
    41    20    39 1   
    42    20    40 1   
@<TRIPOS>SUBSTRUCTURE
     1 S47         1 TEMP              0 ****  ****    0 ROOT
