@<TRIPOS>MOLECULE
S28
   33    35     1     0     0
SMALL
bcc


@<TRIPOS>ATOM
      1 O1          -0.9220    -2.4710    -2.0060 o          1 S28      -0.592100
      2 C1          -0.7190    -1.4700    -2.6740 c          1 S28       0.750100
      3 N1           0.1460    -1.3660    -3.7540 ns         1 S28      -0.448100
      4 C2           1.1710    -2.1730    -4.2150 cc         1 S28      -0.107700
      5 C3           1.8260    -1.7680    -5.3360 cd         1 S28       0.402200
      6 N2           2.8620    -2.4360    -5.9590 nd         1 S28      -0.737000
      7 C4           2.9770    -3.6740    -5.5850 cc         1 S28       0.594400
      8 N3           2.2130    -4.3210    -4.6230 na         1 S28      -0.266200
      9 C5           1.6250    -3.4600    -3.6550 cc         1 S28       0.067700
     10 C6           1.7400    -3.8240    -2.3580 cd         1 S28      -0.225000
     11 C7           2.3270    -5.1210    -1.9990 cd         1 S28      -0.108000
     12 C8           2.6180    -6.0000    -2.9800 cc         1 S28      -0.197300
     13 N4           2.5060    -5.6480    -4.3120 na         1 S28      -0.113400
     14 N5          -1.2520    -0.1990    -2.4180 ns         1 S28      -0.458100
     15 C9          -2.0300     0.1490    -1.2920 ca         1 S28       0.057600
     16 C10         -1.7800     1.3950    -0.6990 ca         1 S28      -0.157000
     17 C11         -2.4770     1.7930     0.4450 ca         1 S28      -0.108500
     18 C12         -3.4710     0.9720     0.9700 ca         1 S28      -0.150000
     19 C13         -3.7560    -0.2480     0.3570 ca         1 S28      -0.108500
     20 C14         -3.0270    -0.6690    -0.7640 ca         1 S28      -0.157000
     21 H1          -0.1200    -0.6250    -4.3870 hn         1 S28       0.301500
     22 H2           1.5630    -0.8350    -5.8250 h4         1 S28       0.027100
     23 H3           3.7880    -4.3030    -5.9860 h5         1 S28       0.061100
     24 H4           1.4590    -3.1600    -1.5380 ha         1 S28       0.158000
     25 H5           2.5010    -5.3620    -0.9650 ha         1 S28       0.146000
     26 H6           2.9820    -7.0060    -2.8010 h4         1 S28       0.164000
     27 H7           1.9360    -6.3170    -4.8400 hn         1 S28       0.201700
     28 H8          -0.6930     0.5540    -2.7890 hn         1 S28       0.306500
     29 H9          -1.0050     2.0500    -1.0850 ha         1 S28       0.148000
     30 H10         -2.2370     2.7370     0.9280 ha         1 S28       0.133500
     31 H11         -4.0200     1.2830     1.8560 ha         1 S28       0.133000
     32 H12         -4.5470    -0.8780     0.7570 ha         1 S28       0.133500
     33 H13         -3.2700    -1.6220    -1.2260 ha         1 S28       0.148000
@<TRIPOS>BOND
     1     1     2 2   
     2     2     3 1   
     3     2    14 1   
     4     3     4 1   
     5     3    21 1   
     6     4     5 2   
     7     4     9 1   
     8     5     6 1   
     9     5    22 1   
    10     6     7 2   
    11     7     8 1   
    12     7    23 1   
    13     8     9 1   
    14     8    13 1   
    15     9    10 2   
    16    10    11 1   
    17    10    24 1   
    18    11    12 2   
    19    11    25 1   
    20    12    13 1   
    21    12    26 1   
    22    13    27 1   
    23    14    15 1   
    24    14    28 1   
    25    15    16 ar  
    26    15    20 ar  
    27    16    17 ar  
    28    16    29 1   
    29    17    18 ar  
    30    17    30 1   
    31    18    19 ar  
    32    18    31 1   
    33    19    20 ar  
    34    19    32 1   
    35    20    33 1   
@<TRIPOS>SUBSTRUCTURE
     1 S28         1 TEMP              0 ****  ****    0 ROOT
