@<TRIPOS>MOLECULE
Cpptraj Generated mol2 file.
   39    41     1     0     0
SMALL
USER_CHARGES


@<TRIPOS>ATOM
      1 O1          9.2667    1.3416   20.9905 o          1 T07     -0.578100
      2 C1          8.6936    0.7442   21.9005 c          1 T07      0.658100
      3 C2          9.3217    0.3790   23.2297 c3         1 T07     -0.151400
      4 C3         10.8309    0.1627   23.0886 c3         1 T07     -0.061700
      5 C4         11.1112   -1.0184   22.1588 c3         1 T07     -0.076400
      6 C5         12.3572   -1.8044   22.5581 c3         1 T07     -0.074900
      7 C6         13.4446   -0.9011   23.1184 c3         1 T07     -0.077400
      8 C7         12.9655   -0.1085   24.3334 c3         1 T07     -0.074900
      9 C8         11.4460   -0.0970   24.4627 c3         1 T07     -0.076400
     10 N1          7.3306    0.4428   21.7840 ns         1 T07     -0.473100
     11 C9          6.5649    0.7366   20.6427 ca         1 T07     -0.017700
     12 C10         5.3486    1.4765   20.7889 ca         1 T07     -0.113300
     13 C11         4.5123    1.5971   19.6658 ca         1 T07      0.285300
     14 C12         4.9797    1.1133   18.3932 ca         1 T07      0.376900
     15 N2          6.1407    0.4997   18.2425 nb         1 T07     -0.635000
     16 C13         6.8915    0.2858   19.3792 ca         1 T07      0.433300
     17 H22         8.8512   -0.5220   23.6868 hc         1 T07      0.074200
     18 H23         9.1062    1.2121   23.9373 hc         1 T07      0.074200
     19 H3         11.2971    1.0875   22.6607 hc         1 T07      0.067700
     20 H42        10.2513   -1.7196   22.1050 hc         1 T07      0.040700
     21 H43        11.2011   -0.6383   21.1247 hc         1 T07      0.040700
     22 H52        12.7452   -2.3593   21.6792 hc         1 T07      0.042200
     23 H53        12.1039   -2.5959   23.2951 hc         1 T07      0.042200
     24 H62        14.3368   -1.5094   23.3820 hc         1 T07      0.042700
     25 H63        13.8053   -0.2142   22.3272 hc         1 T07      0.042700
     26 H72        13.4291   -0.5147   25.2553 hc         1 T07      0.042200
     27 H73        13.3417    0.9338   24.2653 hc         1 T07      0.042200
     28 H82        11.1266    0.6702   25.1971 hc         1 T07      0.040700
     29 H83        11.0749   -1.0539   24.8826 hc         1 T07      0.040700
     30 H1          6.8217    0.0069   22.5598 hn         1 T07      0.324500
     31 C16         4.9266    2.0733   22.0081 ca         1 T07     -0.056000
     32 N3          3.2469    2.1454   19.7432 nb         1 T07     -0.647000
     33 H12         4.3716    1.2543   17.4886 h4         1 T07      0.049100
     34 Cl1         8.2894   -0.6330   19.1027 cl         1 T07     -0.158000
     35 C14         2.8726    2.6545   20.9116 ca         1 T07      0.417200
     36 C15         3.7020    2.6765   22.0696 ca         1 T07     -0.239300
     37 H14         1.8477    3.0708   20.9412 h4         1 T07      0.028100
     38 H15         3.3356    3.1606   22.9896 ha         1 T07      0.150000
     39 H16         5.5747    2.0428   22.8958 ha         1 T07      0.156000
@<TRIPOS>BOND
    1    35    36 1
    2    32    35 1
    3    31    36 1
    4    16    34 1
    5    15    16 1
    6    14    15 1
    7    13    14 1
    8    13    32 1
    9    12    13 1
   10    12    31 1
   11    11    12 1
   12    11    16 1
   13    10    11 1
   14     8     9 1
   15     7     8 1
   16     6     7 1
   17     5     6 1
   18     4     5 1
   19     4     9 1
   20     3     4 1
   21     2     3 1
   22     2    10 1
   23     1     2 1
   24    36    38 1
   25    35    37 1
   26    31    39 1
   27    14    33 1
   28    10    30 1
   29     9    28 1
   30     9    29 1
   31     8    26 1
   32     8    27 1
   33     7    24 1
   34     7    25 1
   35     6    22 1
   36     6    23 1
   37     5    20 1
   38     5    21 1
   39     4    19 1
   40     3    17 1
   41     3    18 1
@<TRIPOS>SUBSTRUCTURE
      1 T07               1 ****               0 ****  **** 
