@<TRIPOS>MOLECULE
Cpptraj Generated mol2 file.
   38    40     1     0     0
SMALL
USER_CHARGES


@<TRIPOS>ATOM
      1 O1          9.1031    1.3168   20.9487 o          1 T08     -0.580100
      2 C1          8.4963    0.7070   21.8296 c          1 T08      0.663100
      3 C2          9.0786    0.3207   23.1734 c3         1 T08     -0.152400
      4 C3         10.5972    0.1617   23.0641 c3         1 T08     -0.061700
      5 C4         10.9540   -0.9783   22.1061 c3         1 T08     -0.076900
      6 C5         12.2184   -1.7342   22.5103 c3         1 T08     -0.074900
      7 C6         13.2520   -0.7904   23.1023 c3         1 T08     -0.077400
      8 C7         12.7125   -0.0866   24.3460 c3         1 T08     -0.074900
      9 C8         11.1888   -0.1213   24.4400 c3         1 T08     -0.076900
     10 N1          7.1432    0.3862   21.6503 ns         1 T08     -0.466100
     11 C9          6.4635    0.6958   20.4613 ca         1 T08      0.021300
     12 C10         5.2867    1.4714   20.4585 ca         1 T08     -0.076800
     13 C11         4.6966    1.8079   19.2091 ca         1 T08     -0.153500
     14 C12         5.2568    1.3620   17.9953 ca         1 T08      0.384200
     15 N2          6.3418    0.5924   17.9964 nb         1 T08     -0.623000
     16 C13         6.8888    0.2666   19.2117 ca         1 T08      0.403300
     17 H22         8.6231   -0.6035   23.5919 hc         1 T08      0.073200
     18 H23         8.8015    1.1116   23.9075 hc         1 T08      0.073200
     19 H3         11.0170    1.1240   22.6738 hc         1 T08      0.066700
     20 H42        10.1204   -1.7056   22.0119 hc         1 T08      0.041200
     21 H43        11.0584   -0.5647   21.0863 hc         1 T08      0.041200
     22 H52        12.6350   -2.2609   21.6264 hc         1 T08      0.041200
     23 H53        11.9876   -2.5495   23.2310 hc         1 T08      0.041200
     24 H62        14.1817   -1.3455   23.3496 hc         1 T08      0.042200
     25 H63        13.5759   -0.0613   22.3337 hc         1 T08      0.042200
     26 H72        13.1437   -0.5644   25.2472 hc         1 T08      0.041200
     27 H73        13.0738    0.9629   24.3627 hc         1 T08      0.041200
     28 H82        10.8317    0.6162   25.1905 hc         1 T08      0.041200
     29 H83        10.8282   -1.1065   24.8078 hc         1 T08      0.041200
     30 H1          6.5652    0.0597   22.4313 hn         1 T08      0.325500
     31 C15         4.4853    2.0658   21.4743 cc         1 T08     -0.150200
     32 N3          3.5673    2.5691   19.4506 na         1 T08     -0.179400
     33 H12         4.8224    1.6520   17.0363 h4         1 T08      0.029100
     34 Cl1         8.2370   -0.7712   19.0608 cl         1 T08     -0.176000
     35 C14         3.4558    2.7404   20.8349 cd         1 T08     -0.109100
     36 H14         2.6295    3.3169   21.2580 h4         1 T08      0.171000
     37 H15         4.6655    1.9783   22.5436 ha         1 T08      0.180000
     38 HN3         3.0627    3.0815   18.7298 hn         1 T08      0.303700
@<TRIPOS>BOND
    1    32    35 1
    2    31    35 1
    3    16    34 1
    4    15    16 1
    5    14    15 1
    6    13    14 1
    7    13    32 1
    8    12    13 1
    9    12    31 1
   10    11    12 1
   11    11    16 1
   12    10    11 1
   13     8     9 1
   14     7     8 1
   15     6     7 1
   16     5     6 1
   17     4     5 1
   18     4     9 1
   19     3     4 1
   20     2     3 1
   21     2    10 1
   22     1     2 1
   23    35    36 1
   24    32    38 1
   25    31    37 1
   26    14    33 1
   27    10    30 1
   28     9    28 1
   29     9    29 1
   30     8    26 1
   31     8    27 1
   32     7    24 1
   33     7    25 1
   34     6    22 1
   35     6    23 1
   36     5    20 1
   37     5    21 1
   38     4    19 1
   39     3    17 1
   40     3    18 1
@<TRIPOS>SUBSTRUCTURE
      1 T08               1 ****               0 ****  **** 
