@<TRIPOS>MOLECULE
Cpptraj Generated mol2 file.
   37    39     1     0     0
SMALL
USER_CHARGES


@<TRIPOS>ATOM
      1 O1          9.2099    1.3190   20.9572 o          1 T09     -0.569100
      2 C1          8.6230    0.7631   21.8835 c          1 T09      0.666100
      3 C2          9.2438    0.3895   23.2102 c3         1 T09     -0.149400
      4 C3         10.7526    0.1538   23.0784 c3         1 T09     -0.059700
      5 C4         11.0275   -1.0343   22.1552 c3         1 T09     -0.074900
      6 C5         12.2878   -1.7962   22.5518 c3         1 T09     -0.075400
      7 C6         13.3572   -0.8712   23.1095 c3         1 T09     -0.077400
      8 C7         12.8795   -0.1140   24.3459 c3         1 T09     -0.075400
      9 C8         11.3581   -0.1006   24.4611 c3         1 T09     -0.074900
     10 N1          7.2438    0.5092   21.7646 ns         1 T09     -0.482100
     11 C9          6.5191    0.7596   20.5938 cc         1 T09     -0.025700
     12 C10         5.2615    1.4412   20.7013 cc         1 T09     -0.057300
     13 N4          4.4815    1.6208   19.5227 na         1 T09      0.028200
     14 C12         4.9901    1.2257   18.2676 cc         1 T09      0.559400
     15 N2          6.1451    0.5987   18.1721 nd         1 T09     -0.670000
     16 C13         6.8721    0.3453   19.3338 cd         1 T09      0.483300
     17 H22         8.7601   -0.5093   23.6544 hc         1 T09      0.072700
     18 H23         9.0333    1.2178   23.9263 hc         1 T09      0.072700
     19 H3         11.2277    1.0696   22.6431 hc         1 T09      0.066700
     20 H42        10.1688   -1.7399   22.1214 hc         1 T09      0.039950
     21 H43        11.0913   -0.6709   21.1127 hc         1 T09      0.039950
     22 H52        12.6786   -2.3509   21.6752 hc         1 T09      0.041450
     23 H53        12.0387   -2.5864   23.2901 hc         1 T09      0.041450
     24 H62        14.2671   -1.4604   23.3414 hc         1 T09      0.042700
     25 H63        13.6800   -0.1608   22.3259 hc         1 T09      0.042700
     26 H72        13.3306   -0.5563   25.2562 hc         1 T09      0.041450
     27 H73        13.2642    0.9276   24.3132 hc         1 T09      0.041450
     28 H82        11.0327    0.6752   25.1855 hc         1 T09      0.039950
     29 H83        10.9770   -1.0572   24.8775 hc         1 T09      0.039950
     30 H1          6.6951    0.1775   22.5655 hn         1 T09      0.325500
     31 C15         4.5265    1.9824   21.7462 cd         1 T09     -0.324600
     32 N3          3.2898    2.2402   19.8108 nc         1 T09     -0.546100
     33 H12         4.4178    1.4689   17.3543 h5         1 T09      0.079100
     34 Cl1         8.2614   -0.5752   19.0596 cl         1 T09     -0.111000
     35 C14         3.3117    2.4555   21.1565 cd         1 T09      0.378500
     36 H14         2.4681    2.9375   21.6741 h4         1 T09      0.057800
     37 H15         4.7919    2.0181   22.7993 ha         1 T09      0.170000
@<TRIPOS>BOND
    1    32    35 1
    2    31    35 1
    3    16    34 1
    4    15    16 1
    5    14    15 1
    6    13    14 1
    7    13    32 1
    8    12    13 1
    9    12    31 1
   10    11    12 1
   11    11    16 1
   12    10    11 1
   13     8     9 1
   14     7     8 1
   15     6     7 1
   16     5     6 1
   17     4     5 1
   18     4     9 1
   19     3     4 1
   20     2     3 1
   21     2    10 1
   22     1     2 1
   23    35    36 1
   24    31    37 1
   25    14    33 1
   26    10    30 1
   27     9    28 1
   28     9    29 1
   29     8    26 1
   30     8    27 1
   31     7    24 1
   32     7    25 1
   33     6    22 1
   34     6    23 1
   35     5    20 1
   36     5    21 1
   37     4    19 1
   38     3    17 1
   39     3    18 1
@<TRIPOS>SUBSTRUCTURE
      1 T09               1 ****               0 ****  **** 
