@<TRIPOS>MOLECULE
Cpptraj Generated mol2 file.
   31    33     1     0     0
SMALL
USER_CHARGES


@<TRIPOS>ATOM
      1 O1          8.6063    1.1947   20.7685 o          1 S97     -0.585100
      2 C1          8.1014    0.2289   21.3625 c          1 S97      0.752100
      3 N1          8.8340   -0.5596   22.2479 ns         1 S97     -0.454100
      4 C2         10.1692   -0.1571   22.5540 ca         1 S97      0.056600
      5 C3         10.3704    1.0499   23.2266 ca         1 S97     -0.156500
      6 C4         11.6654    1.4594   23.5144 ca         1 S97     -0.108500
      7 C5         12.7471    0.6763   23.1299 ca         1 S97     -0.150000
      8 C6         12.5349   -0.5292   22.4710 ca         1 S97     -0.108500
      9 C7         11.2487   -0.9630   22.1837 ca         1 S97     -0.156500
     10 N2          6.7374   -0.0985   21.1986 ns         1 S97     -0.448100
     11 C8          6.0701    0.4504   20.0887 ca         1 S97     -0.021700
     12 C9          4.9187    1.2480   20.2145 ca         1 S97     -0.087800
     13 C10         4.3472    1.7881   19.0255 ca         1 S97     -0.166500
     14 C11         4.9067    1.5109   17.7591 ca         1 S97      0.411200
     15 N3          5.9817    0.7291   17.6432 nb         1 S97     -0.639000
     16 C12         6.5237    0.2324   18.7957 ca         1 S97      0.481300
     17 H1          8.5251   -1.4872   22.5337 hn         1 S97      0.307500
     18 H3          9.5194    1.6752   23.5219 ha         1 S97      0.148500
     19 H4         11.8263    2.4096   24.0358 ha         1 S97      0.133000
     20 H5         13.7666    1.0221   23.3214 ha         1 S97      0.133000
     21 H6         13.3898   -1.1361   22.1544 ha         1 S97      0.133000
     22 H7         11.0896   -1.9112   21.6567 ha         1 S97      0.148500
     23 H2          6.1720   -0.5245   21.9394 hn         1 S97      0.305500
     24 N4          3.2491    2.5528   19.3931 na         1 S97     -0.175400
     25 H11         4.5109    1.9577   16.8393 h4         1 S97      0.030100
     26 Cl1         7.9427   -0.7016   18.5482 cl         1 S97     -0.135000
     27 C14         4.1404    1.7144   21.3099 cc         1 S97     -0.198200
     28 H14         4.3220    1.4992   22.3572 ha         1 S97      0.160000
     29 C13         3.1364    2.5176   20.7849 cd         1 S97     -0.086100
     30 H13         2.3409    3.0587   21.3151 h4         1 S97      0.172000
     31 HN4         2.7408    3.1624   18.7587 hn         1 S97      0.306700
@<TRIPOS>BOND
    1    27    29 1
    2    24    29 1
    3    16    26 1
    4    15    16 1
    5    14    15 1
    6    13    14 1
    7    13    24 1
    8    12    13 1
    9    12    27 1
   10    11    12 1
   11    11    16 1
   12    10    11 1
   13     8     9 1
   14     7     8 1
   15     6     7 1
   16     5     6 1
   17     4     5 1
   18     4     9 1
   19     3     4 1
   20     2     3 1
   21     2    10 1
   22     1     2 1
   23    29    30 1
   24    27    28 1
   25    24    31 1
   26    14    25 1
   27    10    23 1
   28     9    22 1
   29     8    21 1
   30     7    20 1
   31     6    19 1
   32     5    18 1
   33     3    17 1
@<TRIPOS>SUBSTRUCTURE
      1 S97               1 ****               0 ****  **** 
