@<TRIPOS>MOLECULE
Cpptraj Generated mol2 file.
   30    32     1     0     0
SMALL
USER_CHARGES


@<TRIPOS>ATOM
      1 O1          8.6789    1.2278   20.7505 o          1 S99     -0.596100
      2 C1          8.2874    0.2065   21.3409 c          1 S99      0.764100
      3 N1          9.0863   -0.5711   22.1622 ns         1 S99     -0.455100
      4 C2         10.4013   -0.1022   22.4582 ca         1 S99      0.051600
      5 C3         10.5568    1.1498   23.0572 ca         1 S99     -0.153000
      6 C4         11.8383    1.5922   23.3580 ca         1 S99     -0.108500
      7 C5         12.9371    0.7971   23.0561 ca         1 S99     -0.144000
      8 C6         12.7648   -0.4497   22.4678 ca         1 S99     -0.108500
      9 C7         11.4955   -0.9177   22.1627 ca         1 S99     -0.153000
     10 N2          6.9282   -0.2034   21.2325 ns         1 S99     -0.464100
     11 C8          6.1763    0.3058   20.1686 cc         1 S99      0.017000
     12 N6          4.9801    0.9911   20.4315 na         1 S99      0.022700
     13 C10         4.1861    1.4755   19.3405 cc         1 S99     -0.163600
     14 C11         4.6987    1.3131   18.0083 cc         1 S99      0.468200
     15 N3          5.8300    0.6852   17.7526 nd         1 S99     -0.631000
     16 C12         6.5286    0.1793   18.8424 cd         1 S99      0.400300
     17 H1          8.8309   -1.5146   22.4553 hn         1 S99      0.313500
     18 H3          9.6873    1.7747   23.2880 ha         1 S99      0.149500
     19 H4         11.9690    2.5738   23.8279 ha         1 S99      0.137000
     20 H5         13.9437    1.1663   23.2672 ha         1 S99      0.136000
     21 H6         13.6356   -1.0657   22.2218 ha         1 S99      0.137000
     22 H7         11.3582   -1.8972   21.6912 ha         1 S99      0.149500
     23 H2          6.4698   -0.8007   21.9296 hn         1 S99      0.326500
     24 N4          3.0467    2.0300   19.8142 nd         1 S99     -0.248600
     25 H11         4.1323    1.7428   17.1635 h4         1 S99      0.060100
     26 Cl1         7.9536   -0.6350   18.4455 cl         1 S99     -0.137000
     27 C14         4.2850    1.2789   21.6075 cc         1 S99     -0.162100
     28 H14         4.6349    1.0497   22.6259 h4         1 S99      0.204000
     29 C13         3.1056    1.9194   21.1976 cd         1 S99     -0.002400
     30 H13         2.2996    2.3085   21.8322 h4         1 S99      0.188000
@<TRIPOS>BOND
    1    27    29 1
    2    24    29 1
    3    16    26 1
    4    15    16 1
    5    14    15 1
    6    13    14 1
    7    13    24 1
    8    12    13 1
    9    12    27 1
   10    11    12 1
   11    11    16 1
   12    10    11 1
   13     8     9 1
   14     7     8 1
   15     6     7 1
   16     5     6 1
   17     4     5 1
   18     4     9 1
   19     3     4 1
   20     2     3 1
   21     2    10 1
   22     1     2 1
   23    29    30 1
   24    27    28 1
   25    14    25 1
   26    10    23 1
   27     9    22 1
   28     8    21 1
   29     7    20 1
   30     6    19 1
   31     5    18 1
   32     3    17 1
@<TRIPOS>SUBSTRUCTURE
      1 S99               1 ****               0 ****  **** 
