@<TRIPOS>MOLECULE
Cpptraj Generated mol2 file.
   37    39     1     0     0
SMALL
USER_CHARGES


@<TRIPOS>ATOM
      1 O1          9.1040    1.3887   20.9339 o          1 T11     -0.571100
      2 C1          8.4972    0.8580   21.8632 c          1 T11      0.662100
      3 C2          9.1035    0.5057   23.2047 c3         1 T11     -0.150400
      4 C3         10.6044    0.2219   23.0853 c3         1 T11     -0.057700
      5 C4         10.8582   -0.9610   22.1522 c3         1 T11     -0.075400
      6 C5         12.1345   -1.7199   22.5061 c3         1 T11     -0.074900
      7 C6         13.1946   -0.7926   23.0789 c3         1 T11     -0.076400
      8 C7         12.7160   -0.1304   24.3692 c3         1 T11     -0.074900
      9 C8         11.1931   -0.0769   24.4646 c3         1 T11     -0.075400
     10 N1          7.1207    0.6020   21.7241 ns         1 T11     -0.464100
     11 C9          6.4610    0.8486   20.5106 ca         1 T11      0.008300
     12 C10         5.3032    1.6558   20.4452 ca         1 T11      0.065400
     13 C11         4.7025    1.9119   19.1813 ca         1 T11     -0.191500
     14 C12         5.2446    1.3470   18.0093 ca         1 T11      0.415200
     15 N2          6.3210    0.5629   18.0690 nb         1 T11     -0.635000
     16 C13         6.8823    0.3211   19.2906 ca         1 T11      0.472300
     17 H22         8.5800   -0.3618   23.6672 hc         1 T11      0.072700
     18 H23         8.9188    1.3652   23.8869 hc         1 T11      0.072700
     19 H3         11.1104    1.1319   22.6722 hc         1 T11      0.065700
     20 H42        10.0040   -1.6716   22.1480 hc         1 T11      0.040950
     21 H43        10.8986   -0.5916   21.1102 hc         1 T11      0.040950
     22 H52        12.5249   -2.2400   21.6066 hc         1 T11      0.040200
     23 H53        11.9206   -2.5393   23.2249 hc         1 T11      0.040200
     24 H62        14.1383   -1.3528   23.2540 hc         1 T11      0.041200
     25 H63        13.4696   -0.0217   22.3331 hc         1 T11      0.041200
     26 H72        13.1411   -0.6660   25.2416 hc         1 T11      0.040200
     27 H73        13.1354    0.8954   24.4326 hc         1 T11      0.040200
     28 H82        10.8816    0.6800   25.2106 hc         1 T11      0.040950
     29 H83        10.7883   -1.0318   24.8576 hc         1 T11      0.040950
     30 H1          6.5280    0.4027   22.5358 hn         1 T11      0.326500
     31 N7          4.5839    2.3137   21.4550 nc         1 T11     -0.573100
     32 N3          3.6008    2.7275   19.4311 na         1 T11     -0.271300
     33 H12         4.8335    1.5531   17.0166 h4         1 T11      0.033100
     34 Cl1         8.2229   -0.7288   19.2248 cl         1 T11     -0.130000
     35 C14         3.5792    2.9582   20.8156 cd         1 T11      0.433700
     36 H14         2.8046    3.5771   21.3182 h5         1 T11      0.074800
     37 HN3         3.0738    3.2163   18.7128 hn         1 T11      0.313700
@<TRIPOS>BOND
    1    32    35 1
    2    31    35 1
    3    16    34 1
    4    15    16 1
    5    14    15 1
    6    13    14 1
    7    13    32 1
    8    12    13 1
    9    12    31 1
   10    11    12 1
   11    11    16 1
   12    10    11 1
   13     8     9 1
   14     7     8 1
   15     6     7 1
   16     5     6 1
   17     4     5 1
   18     4     9 1
   19     3     4 1
   20     2     3 1
   21     2    10 1
   22     1     2 1
   23    35    36 1
   24    32    37 1
   25    14    33 1
   26    10    30 1
   27     9    28 1
   28     9    29 1
   29     8    26 1
   30     8    27 1
   31     7    24 1
   32     7    25 1
   33     6    22 1
   34     6    23 1
   35     5    20 1
   36     5    21 1
   37     4    19 1
   38     3    17 1
   39     3    18 1
@<TRIPOS>SUBSTRUCTURE
      1 T11               1 ****               0 ****  **** 
