@<TRIPOS>MOLECULE
Cpptraj Generated mol2 file.
   31    33     1     0     0
SMALL
USER_CHARGES


@<TRIPOS>ATOM
      1 O1          8.7174    1.3521   20.7726 o          1 T02     -0.593100
      2 C1          8.2729    0.4026   21.4293 c          1 T02      0.756100
      3 N1          9.0545   -0.3856   22.2586 ns         1 T02     -0.453100
      4 C2         10.4111   -0.0093   22.4848 ca         1 T02      0.058600
      5 C3         10.6928    1.2593   22.9952 ca         1 T02     -0.157000
      6 C4         12.0130    1.6128   23.2427 ca         1 T02     -0.108500
      7 C5         13.0358    0.7097   22.9822 ca         1 T02     -0.150000
      8 C6         12.7455   -0.5469   22.4650 ca         1 T02     -0.108500
      9 C7         11.4327   -0.9237   22.2167 ca         1 T02     -0.157000
     10 N2          6.8844    0.0768   21.3953 ns         1 T02     -0.440100
     11 C8          6.1263    0.5437   20.3177 ca         1 T02     -0.103000
     12 C9          4.9008    1.2548   20.5146 ca         1 T02      0.297300
     13 C10         4.1228    1.5953   19.3920 ca         1 T02      0.165000
     14 C11         4.6129    1.2726   18.0832 ca         1 T02      0.398900
     15 N3          5.7657    0.6481   17.8916 nb         1 T02     -0.643000
     16 C12         6.4818    0.2850   19.0052 ca         1 T02      0.510300
     17 H1          8.7332   -1.2917   22.6035 hn         1 T02      0.311500
     18 H3          9.8890    1.9757   23.2000 ha         1 T02      0.149000
     19 H4         12.2418    2.6103   23.6340 ha         1 T02      0.134000
     20 H5         14.0748    1.0039   23.1538 ha         1 T02      0.133000
     21 H6         13.5569   -1.2435   22.2299 ha         1 T02      0.134000
     22 H7         11.2099   -1.9148   21.8032 ha         1 T02      0.149000
     23 H2          6.3893   -0.1287   22.2704 hn         1 T02      0.315500
     24 H11         4.0437    1.5562   17.1857 h4         1 T02      0.052100
     25 Cl1         7.9166   -0.5627   18.6690 cl         1 T02     -0.111000
     26 N6          4.4979    1.5897   21.8017 nb         1 T02     -0.640000
     27 C14         3.3566    2.2433   21.9191 ca         1 T02      0.321900
     28 C15         2.5296    2.5469   20.7662 ca         1 T02      0.290900
     29 H142        3.0320    2.5277   22.9458 h4         1 T02      0.041100
     30 N5          2.8923    2.2219   19.5390 nb         1 T02     -0.597000
     31 H152        1.5455    3.0485   20.8884 h4         1 T02      0.042100
@<TRIPOS>BOND
    1    28    30 1
    2    27    28 1
    3    26    27 1
    4    16    25 1
    5    15    16 1
    6    14    15 1
    7    13    14 1
    8    13    30 1
    9    12    13 1
   10    12    26 1
   11    11    12 1
   12    11    16 1
   13    10    11 1
   14     8     9 1
   15     7     8 1
   16     6     7 1
   17     5     6 1
   18     4     5 1
   19     4     9 1
   20     3     4 1
   21     2     3 1
   22     2    10 1
   23     1     2 1
   24    28    31 1
   25    27    29 1
   26    14    24 1
   27    10    23 1
   28     9    22 1
   29     8    21 1
   30     7    20 1
   31     6    19 1
   32     5    18 1
   33     3    17 1
@<TRIPOS>SUBSTRUCTURE
      1 T02               1 ****               0 ****  **** 
