@<TRIPOS>MOLECULE
Cpptraj Generated mol2 file.
   32    34     1     0     0
SMALL
USER_CHARGES


@<TRIPOS>ATOM
      1 O1          8.7334    1.3186   20.8057 o          1 S96     -0.586100
      2 C1          8.2979    0.3292   21.4143 c          1 S96      0.755100
      3 N1          9.0951   -0.4774   22.2196 ns         1 S96     -0.452100
      4 C2         10.4365   -0.0703   22.4787 ca         1 S96      0.052600
      5 C3         10.6687    1.1825   23.0497 ca         1 S96     -0.154500
      6 C4         11.9743    1.5720   23.3192 ca         1 S96     -0.108500
      7 C5         13.0305    0.7208   23.0230 ca         1 S96     -0.148000
      8 C6         12.7883   -0.5250   22.4569 ca         1 S96     -0.108500
      9 C7         11.4919   -0.9381   22.1848 ca         1 S96     -0.154500
     10 N2          6.9218    0.0161   21.3693 ns         1 S96     -0.467100
     11 C8          6.1537    0.5181   20.3072 ca         1 S96     -0.050700
     12 C9          4.9665    1.2714   20.5442 ca         1 S96     -0.128300
     13 C10         4.1714    1.6121   19.4355 ca         1 S96      0.276300
     14 C11         4.6409    1.2926   18.1121 ca         1 S96      0.393900
     15 N3          5.7826    0.6613   17.8897 nb         1 S96     -0.646000
     16 C12         6.5015    0.2713   18.9949 ca         1 S96      0.505300
     17 H1          8.8212   -1.4284   22.4675 hn         1 S96      0.306500
     18 H3          9.8386    1.8592   23.2824 ha         1 S96      0.148000
     19 H4         12.1640    2.5585   23.7565 ha         1 S96      0.134500
     20 H5         14.0575    1.0461   23.2056 ha         1 S96      0.134000
     21 H6         13.6248   -1.1831   22.2021 ha         1 S96      0.134500
     22 H7         11.3076   -1.9186   21.7316 ha         1 S96      0.148000
     23 H2          6.4462   -0.5400   22.0827 hn         1 S96      0.308500
     24 N4          2.9442    2.2310   19.5704 nb         1 S96     -0.634000
     25 H11         4.0677    1.5994   17.2252 h4         1 S96      0.050100
     26 Cl1         7.9253   -0.5926   18.6379 cl         1 S96     -0.121000
     27 C15         4.5460    1.6941   21.8336 ca         1 S96     -0.094000
     28 H15         5.1733    1.4862   22.7109 ha         1 S96      0.140000
     29 C14         3.3622    2.3632   21.9603 ca         1 S96     -0.223300
     30 H14         2.9987    2.7239   22.9355 ha         1 S96      0.151000
     31 C13         2.5699    2.5835   20.7940 ca         1 S96      0.408200
     32 H13         1.5760    3.0698   20.8668 h4         1 S96      0.031100
@<TRIPOS>BOND
    1    29    31 1
    2    27    29 1
    3    24    31 1
    4    16    26 1
    5    15    16 1
    6    14    15 1
    7    13    14 1
    8    13    24 1
    9    12    13 1
   10    12    27 1
   11    11    12 1
   12    11    16 1
   13    10    11 1
   14     8     9 1
   15     7     8 1
   16     6     7 1
   17     5     6 1
   18     4     5 1
   19     4     9 1
   20     3     4 1
   21     2     3 1
   22     2    10 1
   23     1     2 1
   24    31    32 1
   25    29    30 1
   26    27    28 1
   27    14    25 1
   28    10    23 1
   29     9    22 1
   30     8    21 1
   31     7    20 1
   32     6    19 1
   33     5    18 1
   34     3    17 1
@<TRIPOS>SUBSTRUCTURE
      1 S96               1 ****               0 ****  **** 
