@<TRIPOS>MOLECULE
Cpptraj Generated mol2 file.
   36    37     1     0     0
SMALL
USER_CHARGES


@<TRIPOS>ATOM
      1 O1          9.1537    1.3064   20.9933 o          1 T03     -0.590100
      2 C1          8.5681    0.6668   21.8618 c          1 T03      0.670100
      3 C2          9.1804    0.2476   23.1838 c3         1 T03     -0.152400
      4 C3         10.7061    0.1383   23.0750 c3         1 T03     -0.061700
      5 C4         11.0905   -0.9626   22.0840 c3         1 T03     -0.075900
      6 C5         12.3199   -1.7581   22.5128 c3         1 T03     -0.074900
      7 C6         13.3757   -0.8643   23.1422 c3         1 T03     -0.077400
      8 C7         12.8340   -0.0901   24.3421 c3         1 T03     -0.074900
      9 C8         11.3128   -0.1515   24.4474 c3         1 T03     -0.075900
     10 N1          7.2141    0.3456   21.6924 ns         1 T03     -0.467100
     11 C9          6.5190    0.6634   20.5079 ca         1 T03      0.019300
     12 C10         5.3524    1.4283   20.5553 ca         1 T03     -0.198000
     13 C11         4.6898    1.7300   19.3535 ca         1 T03      0.068300
     14 C12         5.2395    1.2410   18.1365 ca         1 T03      0.313200
     15 N2          6.3467    0.4918   18.0821 nb         1 T03     -0.599000
     16 C13         6.9490    0.2015   19.2539 ca         1 T03      0.386300
     17 H22         8.7541   -0.7148   23.5473 hc         1 T03      0.074700
     18 H23         8.8911    1.0056   23.9474 hc         1 T03      0.074700
     19 H3         11.1148    1.1183   22.7125 hc         1 T03      0.065700
     20 H42        10.2541   -1.6707   21.9021 hc         1 T03      0.040950
     21 H43        11.2521   -0.4959   21.0948 hc         1 T03      0.040950
     22 H52        12.7452   -2.2864   21.6339 hc         1 T03      0.041700
     23 H53        12.0395   -2.5730   23.2135 hc         1 T03      0.041700
     24 H62        14.2531   -1.4762   23.4427 hc         1 T03      0.042200
     25 H63        13.7776   -0.1673   22.3804 hc         1 T03      0.042200
     26 H72        13.2987   -0.4719   25.2731 hc         1 T03      0.041700
     27 H73        13.1601    0.9696   24.2798 hc         1 T03      0.041700
     28 H82        10.9504    0.5719   25.2073 hc         1 T03      0.040950
     29 H83        10.9751   -1.1388   24.8240 hc         1 T03      0.040950
     30 H1          6.6473   -0.0065   22.4695 hn         1 T03      0.332500
     31 H10         4.9625    1.7807   21.5200 ha         1 T03      0.182000
     32 N3          3.4881    2.4082   19.3572 nv         1 T03     -0.819200
     33 H12         4.7899    1.4740   17.1653 h4         1 T03      0.029100
     34 Cl1         8.3122   -0.8154   19.1332 cl         1 T03     -0.173000
     35 H31         3.2514    2.9550   20.1739 hn         1 T03      0.403800
     36 H32         3.1663    2.7956   18.4811 hn         1 T03      0.403800
@<TRIPOS>BOND
    1    16    34 1
    2    15    16 1
    3    14    15 1
    4    13    14 1
    5    13    32 1
    6    12    13 1
    7    11    12 1
    8    11    16 1
    9    10    11 1
   10     8     9 1
   11     7     8 1
   12     6     7 1
   13     5     6 1
   14     4     5 1
   15     4     9 1
   16     3     4 1
   17     2     3 1
   18     2    10 1
   19     1     2 1
   20    32    35 1
   21    32    36 1
   22    14    33 1
   23    12    31 1
   24    10    30 1
   25     9    28 1
   26     9    29 1
   27     8    26 1
   28     8    27 1
   29     7    24 1
   30     7    25 1
   31     6    22 1
   32     6    23 1
   33     5    20 1
   34     5    21 1
   35     4    19 1
   36     3    17 1
   37     3    18 1
@<TRIPOS>SUBSTRUCTURE
      1 T03               1 ****               0 ****  **** 
