@<TRIPOS>MOLECULE
Cpptraj Generated mol2 file.
   30    32     1     0     0
SMALL
USER_CHARGES


@<TRIPOS>ATOM
      1 O1          8.5361    1.2742   20.7263 o          1 T00     -0.590100
      2 C1          8.0640    0.3023   21.3333 c          1 T00      0.756100
      3 N1          8.8076   -0.4777   22.2045 ns         1 T00     -0.454100
      4 C2         10.1521   -0.0872   22.4879 ca         1 T00      0.061600
      5 C3         10.3900    1.1609   23.0673 ca         1 T00     -0.158000
      6 C4         11.6958    1.5393   23.3545 ca         1 T00     -0.108500
      7 C5         12.7495    0.6828   23.0605 ca         1 T00     -0.152000
      8 C6         12.5030   -0.5562   22.4815 ca         1 T00     -0.108500
      9 C7         11.2052   -0.9580   22.1958 ca         1 T00     -0.158000
     10 N2          6.6882   -0.0491   21.1946 ns         1 T00     -0.440100
     11 C8          6.0069    0.4806   20.0902 ca         1 T00     -0.004700
     12 C9          4.8347    1.2520   20.1972 ca         1 T00      0.067400
     13 C10         4.2645    1.8083   19.0172 ca         1 T00     -0.192500
     14 C11         4.8274    1.5415   17.7503 ca         1 T00      0.419200
     15 N3          5.9066    0.7638   17.6425 nb         1 T00     -0.636000
     16 C12         6.4605    0.2719   18.7924 ca         1 T00      0.484300
     17 H1          8.4992   -1.4042   22.5020 hn         1 T00      0.311500
     18 H3          9.5629    1.8452   23.2899 ha         1 T00      0.149000
     19 H4         11.8884    2.5231   23.8015 ha         1 T00      0.133000
     20 H5         13.7768    0.9981   23.2604 ha         1 T00      0.133000
     21 H6         13.3375   -1.2162   22.2212 ha         1 T00      0.133000
     22 H7         11.0173   -1.9310   21.7295 ha         1 T00      0.149000
     23 H2          6.1346   -0.3059   22.0173 hn         1 T00      0.315500
     24 N4          3.1619    2.5471   19.4357 na         1 T00     -0.270300
     25 H11         4.4375    1.9945   16.8308 h4         1 T00      0.033100
     26 Cl1         7.8821   -0.6421   18.5551 cl         1 T00     -0.126000
     27 N8          4.0871    1.6304   21.3199 nc         1 T00     -0.575100
     28 C13         3.0979    2.4219   20.8302 cd         1 T00      0.438700
     29 H13         2.3077    2.9062   21.4457 h5         1 T00      0.075800
     30 HN4         2.6372    3.1887   18.8446 hn         1 T00      0.314700
@<TRIPOS>BOND
    1    27    28 1
    2    24    28 1
    3    16    26 1
    4    15    16 1
    5    14    15 1
    6    13    14 1
    7    13    24 1
    8    12    13 1
    9    12    27 1
   10    11    12 1
   11    11    16 1
   12    10    11 1
   13     8     9 1
   14     7     8 1
   15     6     7 1
   16     5     6 1
   17     4     5 1
   18     4     9 1
   19     3     4 1
   20     2     3 1
   21     2    10 1
   22     1     2 1
   23    28    29 1
   24    24    30 1
   25    14    25 1
   26    10    23 1
   27     9    22 1
   28     8    21 1
   29     7    20 1
   30     6    19 1
   31     5    18 1
   32     3    17 1
@<TRIPOS>SUBSTRUCTURE
      1 T00               1 ****               0 ****  **** 
