@<TRIPOS>MOLECULE
Cpptraj Generated mol2 file.
   30    32     1     0     0
SMALL
USER_CHARGES


@<TRIPOS>ATOM
      1 O1          8.6821    1.1858   20.7452 o          1 T01     -0.583100
      2 C1          8.2038    0.2057   21.3332 c          1 T01      0.755100
      3 N1          8.9459   -0.5948   22.1942 ns         1 T01     -0.452100
      4 C2         10.2699   -0.1692   22.5157 ca         1 T01      0.054600
      5 C3         10.4406    1.0611   23.1550 ca         1 T01     -0.155000
      6 C4         11.7244    1.4910   23.4674 ca         1 T01     -0.108500
      7 C5         12.8212    0.7081   23.1287 ca         1 T01     -0.148000
      8 C6         12.6400   -0.5129   22.4909 ca         1 T01     -0.108500
      9 C7         11.3644   -0.9675   22.1793 ca         1 T01     -0.155000
     10 N2          6.8297   -0.1158   21.2028 ns         1 T01     -0.457100
     11 C8          6.1226    0.3786   20.1025 ca         1 T01      0.007300
     12 C9          4.9209    1.0937   20.2477 ca         1 T01     -0.210900
     13 C10         4.3084    1.6484   19.0899 ca         1 T01     -0.165500
     14 C11         4.8708    1.4395   17.8040 ca         1 T01      0.414200
     15 N3          5.9658    0.7003   17.6660 nb         1 T01     -0.625000
     16 C12         6.5558    0.1985   18.7962 ca         1 T01      0.472300
     17 H1          8.6499   -1.5334   22.4550 hn         1 T01      0.309500
     18 H3          9.5789    1.6976   23.3912 ha         1 T01      0.148500
     19 H4         11.8618    2.4570   23.9685 ha         1 T01      0.134500
     20 H5         13.8312    1.0781   23.3218 ha         1 T01      0.134000
     21 H6         13.5085   -1.1157   22.2070 ha         1 T01      0.134500
     22 H7         11.2308   -1.9150   21.6492 ha         1 T01      0.148500
     23 H2          6.3115   -0.5646   21.9583 hn         1 T01      0.308500
     24 N4          3.1684    2.3025   19.5260 na         1 T01     -0.005100
     25 H11         4.4549    1.9083   16.9042 h4         1 T01      0.037100
     26 Cl1         7.9920   -0.6836   18.5080 cl         1 T01     -0.127000
     27 C14         4.0787    1.4671   21.3475 cc         1 T01      0.336800
     28 N7          3.0452    2.2053   20.8784 nd         1 T01     -0.488100
     29 HN4         2.5598    2.9219   18.9830 hn         1 T01      0.333700
     30 H14         4.2066    1.2203   22.4074 h4         1 T01      0.058800
@<TRIPOS>BOND
    1    27    28 1
    2    24    28 1
    3    16    26 1
    4    15    16 1
    5    14    15 1
    6    13    14 1
    7    13    24 1
    8    12    13 1
    9    12    27 1
   10    11    12 1
   11    11    16 1
   12    10    11 1
   13     8     9 1
   14     7     8 1
   15     6     7 1
   16     5     6 1
   17     4     5 1
   18     4     9 1
   19     3     4 1
   20     2     3 1
   21     2    10 1
   22     1     2 1
   23    27    30 1
   24    24    29 1
   25    14    25 1
   26    10    23 1
   27     9    22 1
   28     8    21 1
   29     7    20 1
   30     6    19 1
   31     5    18 1
   32     3    17 1
@<TRIPOS>SUBSTRUCTURE
      1 T01               1 ****               0 ****  **** 
