@<TRIPOS>MOLECULE
Cpptraj Generated mol2 file.
   38    40     1     0     0
SMALL
USER_CHARGES


@<TRIPOS>ATOM
      1 O1          9.4009    1.4247   20.9832 o          1 T13     -0.572100
      2 C1          8.7835    0.9604   21.9381 c          1 T13      0.662100
      3 C2          9.3910    0.5726   23.2764 c3         1 T13     -0.149400
      4 C3         10.8758    0.2210   23.1201 c3         1 T13     -0.057700
      5 C4         11.0584   -0.9661   22.1727 c3         1 T13     -0.075400
      6 C5         12.2947   -1.7929   22.5220 c3         1 T13     -0.075400
      7 C6         13.4160   -0.9403   23.0969 c3         1 T13     -0.076400
      8 C7         12.9862   -0.2137   24.3690 c3         1 T13     -0.075400
      9 C8         11.4673   -0.1184   24.4890 c3         1 T13     -0.075400
     10 N1          7.3902    0.8189   21.8636 ns         1 T13     -0.465100
     11 C9          6.6394    0.9825   20.6917 ca         1 T13     -0.088000
     12 C10         5.3917    1.7082   20.7349 ca         1 T13      0.295300
     13 C11         4.5269    1.6486   19.6256 ca         1 T13      0.167000
     14 C12         5.0058    1.0145   18.4283 ca         1 T13      0.392900
     15 N2          6.1852    0.4080   18.3510 nb         1 T13     -0.640000
     16 C13         6.9620    0.3749   19.4923 ca         1 T13      0.495300
     17 H22         8.8494   -0.2830   23.7467 hc         1 T13      0.073200
     18 H23         9.2537    1.4282   23.9793 hc         1 T13      0.073200
     19 H3         11.4217    1.1094   22.7052 hc         1 T13      0.065700
     20 H42        10.1694   -1.6322   22.1659 hc         1 T13      0.040450
     21 H43        11.1115   -0.6032   21.1269 hc         1 T13      0.040450
     22 H52        12.6487   -2.3286   21.6169 hc         1 T13      0.040450
     23 H53        12.0304   -2.5978   23.2387 hc         1 T13      0.040450
     24 H62        14.3056   -1.5769   23.2931 hc         1 T13      0.041200
     25 H63        13.7582   -0.2094   22.3402 hc         1 T13      0.041200
     26 H72        13.4135   -0.7254   25.2539 hc         1 T13      0.040450
     27 H73        13.4378    0.8011   24.3964 hc         1 T13      0.040450
     28 H82        11.1885    0.6450   25.2425 hc         1 T13      0.040450
     29 H83        11.0373   -1.0637   24.8847 hc         1 T13      0.040450
     30 H1          6.8601    0.6830   22.7401 hn         1 T13      0.326500
     31 N6          5.0532    2.4180   21.8816 nb         1 T13     -0.636000
     32 N3          3.2404    2.1662   19.7277 nb         1 T13     -0.598000
     33 H12         4.4180    1.0619   17.4964 h4         1 T13      0.051100
     34 Cl1         8.3805   -0.5440   19.3169 cl         1 T13     -0.115000
     35 C14         2.9092    2.7885   20.8481 ca         1 T13      0.290900
     36 C15         3.8543    2.9704   21.9357 ca         1 T13      0.316900
     37 H142        1.8659    3.1530   20.9526 h4         1 T13      0.041100
     38 H11         3.6087    3.5373   22.8656 h4         1 T13      0.039100
@<TRIPOS>BOND
    1    35    36 1
    2    32    35 1
    3    31    36 1
    4    16    34 1
    5    15    16 1
    6    14    15 1
    7    13    14 1
    8    13    32 1
    9    12    13 1
   10    12    31 1
   11    11    12 1
   12    11    16 1
   13    10    11 1
   14     8     9 1
   15     7     8 1
   16     6     7 1
   17     5     6 1
   18     4     5 1
   19     4     9 1
   20     3     4 1
   21     2     3 1
   22     2    10 1
   23     1     2 1
   24    36    38 1
   25    35    37 1
   26    14    33 1
   27    10    30 1
   28     9    28 1
   29     9    29 1
   30     8    26 1
   31     8    27 1
   32     7    24 1
   33     7    25 1
   34     6    22 1
   35     6    23 1
   36     5    20 1
   37     5    21 1
   38     4    19 1
   39     3    17 1
   40     3    18 1
@<TRIPOS>SUBSTRUCTURE
      1 T13               1 ****               0 ****  **** 
