@<TRIPOS>MOLECULE
Cpptraj Generated mol2 file.
   32    33     1     0     0
SMALL
USER_CHARGES


@<TRIPOS>ATOM
      1 O1          8.6267    1.2667   20.7658 o          1 S93     -0.589100
      2 C1          8.1251    0.3137   21.3797 c          1 S93      0.756100
      3 N1          8.8568   -0.4840   22.2539 ns         1 S93     -0.453100
      4 C2         10.2009   -0.1038   22.5445 ca         1 S93      0.055600
      5 C3         10.4350    1.1201   23.1755 ca         1 S93     -0.156000
      6 C4         11.7413    1.4991   23.4582 ca         1 S93     -0.108500
      7 C5         12.7986    0.6692   23.1111 ca         1 S93     -0.149000
      8 C6         12.5554   -0.5496   22.4907 ca         1 S93     -0.108500
      9 C7         11.2570   -0.9549   22.2095 ca         1 S93     -0.156000
     10 N2          6.7474    0.0096   21.2498 ns         1 S93     -0.465100
     11 C8          6.0801    0.5488   20.1286 ca         1 S93     -0.025700
     12 C9          4.9422    1.3430   20.2639 ca         1 S93     -0.177000
     13 C10         4.3272    1.8394   19.1067 ca         1 S93      0.044300
     14 C11         4.8916    1.4902   17.8406 ca         1 S93      0.355200
     15 N3          5.9786    0.7226   17.7029 nb         1 S93     -0.621000
     16 C12         6.5407    0.2593   18.8396 ca         1 S93      0.468300
     17 H1          8.5321   -1.4055   22.5502 hn         1 S93      0.308500
     18 H3          9.6029    1.7783   23.4492 ha         1 S93      0.148000
     19 H4         11.9279    2.4604   23.9470 ha         1 S93      0.133500
     20 H5         13.8263    0.9867   23.3050 ha         1 S93      0.133000
     21 H6         13.3923   -1.1922   22.1991 ha         1 S93      0.133500
     22 H7         11.0722   -1.9194   21.7212 ha         1 S93      0.148000
     23 H2          6.1762   -0.3237   22.0345 hn         1 S93      0.307500
     24 H9          4.5677    1.5905   21.2639 ha         1 S93      0.144000
     25 N4          3.1463    2.5581   19.1533 nu         1 S93     -0.724600
     26 H11         4.4841    1.8702   16.8974 h4         1 S93      0.029100
     27 Cl1         7.9247   -0.7205   18.6264 cl         1 S93     -0.134000
     28 C13         2.6534    3.1103   20.4198 c3         1 S93      0.172100
     29 HN4         2.9050    3.0794   18.3103 hn         1 S93      0.405800
     30 H131        1.7727    3.7436   20.2101 h1         1 S93      0.041367
     31 H132        2.3334    2.3133   21.1189 h1         1 S93      0.041367
     32 H133        3.3816    3.7472   20.9563 h1         1 S93      0.041367
@<TRIPOS>BOND
    1    25    28 1
    2    16    27 1
    3    15    16 1
    4    14    15 1
    5    13    14 1
    6    13    25 1
    7    12    13 1
    8    11    12 1
    9    11    16 1
   10    10    11 1
   11     8     9 1
   12     7     8 1
   13     6     7 1
   14     5     6 1
   15     4     5 1
   16     4     9 1
   17     3     4 1
   18     2     3 1
   19     2    10 1
   20     1     2 1
   21    28    30 1
   22    28    31 1
   23    28    32 1
   24    25    29 1
   25    14    26 1
   26    12    24 1
   27    10    23 1
   28     9    22 1
   29     8    21 1
   30     7    20 1
   31     6    19 1
   32     5    18 1
   33     3    17 1
@<TRIPOS>SUBSTRUCTURE
      1 S93               1 ****               0 ****  **** 
