@<TRIPOS>MOLECULE
Cpptraj Generated mol2 file.
   30    32     1     0     0
SMALL
USER_CHARGES


@<TRIPOS>ATOM
      1 O1          8.6684    1.2375   20.7554 o          1 S98     -0.585100
      2 C1          8.2436    0.2256   21.3315 c          1 S98      0.752100
      3 N1          9.0345   -0.5820   22.1420 ns         1 S98     -0.451100
      4 C2         10.3582   -0.1487   22.4433 ca         1 S98      0.052600
      5 C3         10.5435    1.0828   23.0751 ca         1 S98     -0.154500
      6 C4         11.8321    1.4997   23.3827 ca         1 S98     -0.108500
      7 C5         12.9195    0.6980   23.0604 ca         1 S98     -0.147000
      8 C6         12.7231   -0.5285   22.4376 ca         1 S98     -0.108500
      9 C7         11.4441   -0.9694   22.1278 ca         1 S98     -0.154500
     10 N2          6.8776   -0.1311   21.2402 ns         1 S98     -0.445100
     11 C8          6.1196    0.3871   20.1860 cc         1 S98      0.020600
     12 C9          4.8782    1.0474   20.4441 cc         1 S98     -0.061300
     13 N5          4.1472    1.5344   19.3190 na         1 S98      0.044600
     14 C11         4.6558    1.4070   18.0105 cc         1 S98      0.275400
     15 N3          5.7935    0.7819   17.7832 nd         1 S98     -0.365000
     16 C12         6.4945    0.2774   18.8712 cd         1 S98      0.391000
     17 H1          8.7765   -1.5453   22.3606 hn         1 S98      0.309500
     18 H3          9.6894    1.7205   23.3284 ha         1 S98      0.149000
     19 H4         11.9835    2.4680   23.8721 ha         1 S98      0.135000
     20 H5         13.9336    1.0465   23.2712 ha         1 S98      0.134000
     21 H6         13.5835   -1.1483   22.1666 ha         1 S98      0.135000
     22 H7         11.2960   -1.9358   21.6314 ha         1 S98      0.149000
     23 H2          6.3949   -0.6555   21.9709 hn         1 S98      0.309500
     24 N4          2.9826    2.1371   19.7169 nc         1 S98     -0.246800
     25 H11         4.0875    1.8596   17.1748 h5         1 S98      0.080100
     26 Cl1         7.9303   -0.5101   18.4578 cl         1 S98     -0.104000
     27 C14         4.1298    1.3610   21.5691 cd         1 S98     -0.243000
     28 H14         4.3647    1.1540   22.6108 ha         1 S98      0.170000
     29 C13         2.9678    2.0359   21.0742 cd         1 S98      0.008200
     30 H13         2.1373    2.4441   21.6675 h4         1 S98      0.058800
@<TRIPOS>BOND
    1    27    29 1
    2    24    29 1
    3    16    26 1
    4    15    16 1
    5    14    15 1
    6    13    14 1
    7    13    24 1
    8    12    13 1
    9    12    27 1
   10    11    12 1
   11    11    16 1
   12    10    11 1
   13     8     9 1
   14     7     8 1
   15     6     7 1
   16     5     6 1
   17     4     5 1
   18     4     9 1
   19     3     4 1
   20     2     3 1
   21     2    10 1
   22     1     2 1
   23    29    30 1
   24    27    28 1
   25    14    25 1
   26    10    23 1
   27     9    22 1
   28     8    21 1
   29     7    20 1
   30     6    19 1
   31     5    18 1
   32     3    17 1
@<TRIPOS>SUBSTRUCTURE
      1 S98               1 ****               0 ****  **** 
