@<TRIPOS>MOLECULE
Cpptraj Generated mol2 file.
   37    39     1     0     0
SMALL
USER_CHARGES


@<TRIPOS>ATOM
      1 O1          9.1198    1.3886   20.9581 o          1 T12     -0.580100
      2 C1          8.4943    0.8367   21.8614 c          1 T12      0.667100
      3 C2          9.0738    0.4596   23.2071 c3         1 T12     -0.152400
      4 C3         10.5812    0.2003   23.0968 c3         1 T12     -0.062700
      5 C4         10.8530   -0.9700   22.1489 c3         1 T12     -0.076900
      6 C5         12.1427   -1.7131   22.4931 c3         1 T12     -0.074900
      7 C6         13.1836   -0.7757   23.0840 c3         1 T12     -0.077400
      8 C7         12.6900   -0.1526   24.3869 c3         1 T12     -0.074900
      9 C8         11.1654   -0.1122   24.4751 c3         1 T12     -0.076900
     10 N1          7.1193    0.5912   21.6931 ns         1 T12     -0.467100
     11 C9          6.4763    0.8297   20.4720 ca         1 T12      0.049300
     12 C10         5.2933    1.5899   20.4064 ca         1 T12     -0.203900
     13 C11         4.7084    1.8482   19.1407 ca         1 T12     -0.150500
     14 C12         5.2996    1.3427   17.9576 ca         1 T12      0.383200
     15 N2          6.3907    0.5889   18.0242 nb         1 T12     -0.608000
     16 C13         6.9342    0.3298   19.2551 ca         1 T12      0.393300
     17 H22         8.5619   -0.4275   23.6460 hc         1 T12      0.075700
     18 H23         8.8683    1.2977   23.9117 hc         1 T12      0.075700
     19 H3         11.0811    1.1214   22.7002 hc         1 T12      0.066700
     20 H42        10.0107   -1.6940   22.1397 hc         1 T12      0.040950
     21 H43        10.8867   -0.5907   21.1093 hc         1 T12      0.040950
     22 H52        12.5430   -2.2095   21.5860 hc         1 T12      0.042450
     23 H53        11.9417   -2.5487   23.1968 hc         1 T12      0.042450
     24 H62        14.1383   -1.3185   23.2491 hc         1 T12      0.042700
     25 H63        13.4405    0.0152   22.3537 hc         1 T12      0.042700
     26 H72        13.1105   -0.7100   25.2473 hc         1 T12      0.042450
     27 H73        13.1023    0.8728   24.4854 hc         1 T12      0.042450
     28 H82        10.8430    0.6356   25.2288 hc         1 T12      0.040950
     29 H83        10.7656   -1.0763   24.8521 hc         1 T12      0.040950
     30 H1          6.5268    0.3375   22.4894 hn         1 T12      0.329500
     31 C15         4.4290    2.2249   21.3647 cc         1 T12      0.384800
     32 N3          3.5497    2.5749   19.3780 na         1 T12     -0.009100
     33 H12         4.9041    1.5807   16.9672 h4         1 T12      0.036100
     34 Cl1         8.2805   -0.7112   19.2007 cl         1 T12     -0.167000
     35 N6          3.4017    2.8161   20.7157 nd         1 T12     -0.510100
     36 HN3         3.0018    3.0861   18.6811 hn         1 T12      0.327700
     37 H15         4.5319    2.2391   22.4563 h4         1 T12      0.081800
@<TRIPOS>BOND
    1    32    35 1
    2    31    35 1
    3    16    34 1
    4    15    16 1
    5    14    15 1
    6    13    14 1
    7    13    32 1
    8    12    13 1
    9    12    31 1
   10    11    12 1
   11    11    16 1
   12    10    11 1
   13     8     9 1
   14     7     8 1
   15     6     7 1
   16     5     6 1
   17     4     5 1
   18     4     9 1
   19     3     4 1
   20     2     3 1
   21     2    10 1
   22     1     2 1
   23    32    36 1
   24    31    37 1
   25    14    33 1
   26    10    30 1
   27     9    28 1
   28     9    29 1
   29     8    26 1
   30     8    27 1
   31     7    24 1
   32     7    25 1
   33     6    22 1
   34     6    23 1
   35     5    20 1
   36     5    21 1
   37     4    19 1
   38     3    17 1
   39     3    18 1
@<TRIPOS>SUBSTRUCTURE
      1 T12               1 ****               0 ****  **** 
