@<TRIPOS>MOLECULE
Cpptraj Generated mol2 file.
   38    40     1     0     0
SMALL
USER_CHARGES


@<TRIPOS>ATOM
      1 O1          9.3269    1.3047   20.9862 o          1 T06     -0.575100
      2 C1          8.7351    0.7279   21.8930 c          1 T06      0.658100
      3 C2          9.3479    0.2767   23.2054 c3         1 T06     -0.151400
      4 C3         10.8705    0.1526   23.0785 c3         1 T06     -0.062700
      5 C4         11.2352   -0.9447   22.0769 c3         1 T06     -0.076400
      6 C5         12.4200   -1.7924   22.5249 c3         1 T06     -0.074900
      7 C6         13.5104   -0.9524   23.1699 c3         1 T06     -0.077400
      8 C7         12.9926   -0.1142   24.3362 c3         1 T06     -0.074900
      9 C8         11.4731   -0.1473   24.4496 c3         1 T06     -0.076400
     10 N1          7.3468    0.5256   21.7980 ns         1 T06     -0.474100
     11 C9          6.5997    0.7913   20.6433 ca         1 T06      0.003300
     12 C10         5.3728    1.5174   20.7549 ca         1 T06     -0.242600
     13 C11         4.5147    1.5932   19.6463 ca         1 T06      0.307300
     14 C12         4.9849    1.0734   18.3872 ca         1 T06      0.367900
     15 N2          6.1564    0.4786   18.2514 nb         1 T06     -0.621000
     16 C13         6.9227    0.3158   19.3834 ca         1 T06      0.426300
     17 H22         8.9148   -0.6897   23.5558 hc         1 T06      0.076700
     18 H23         9.0752    1.0232   23.9874 hc         1 T06      0.076700
     19 H3         11.2880    1.1288   22.7180 hc         1 T06      0.067700
     20 H42        10.3764   -1.6175   21.8617 hc         1 T06      0.040700
     21 H43        11.4371   -0.4771   21.0959 hc         1 T06      0.040700
     22 H52        12.8342   -2.3437   21.6556 hc         1 T06      0.042700
     23 H53        12.0850   -2.5906   23.2215 hc         1 T06      0.042700
     24 H62        14.3323   -1.6171   23.5093 hc         1 T06      0.043200
     25 H63        13.9820   -0.3043   22.4036 hc         1 T06      0.043200
     26 H72        13.4595   -0.4540   25.2834 hc         1 T06      0.042700
     27 H73        13.3317    0.9365   24.2157 hc         1 T06      0.042700
     28 H82        11.1254    0.5873   25.2066 hc         1 T06      0.040700
     29 H83        11.1190   -1.1275   24.8299 hc         1 T06      0.040700
     30 H1          6.8283    0.1291   22.5932 hn         1 T06      0.326500
     31 C16         4.9316    2.1654   21.9610 ca         1 T06      0.483200
     32 N3          3.2418    2.1254   19.7424 nb         1 T06     -0.671000
     33 H12         4.3809    1.1854   17.4789 h4         1 T06      0.053100
     34 Cl1         8.3409   -0.5816   19.1327 cl         1 T06     -0.151000
     35 C14         2.9066    2.6540   20.9241 ca         1 T06      0.640900
     36 N5          3.7393    2.7326   22.0405 nb         1 T06     -0.687000
     37 H14         1.8738    3.0637   21.0384 h5         1 T06      0.061100
     38 H16         5.5651    2.2111   22.8683 h4         1 T06      0.047100
@<TRIPOS>BOND
    1    35    36 1
    2    32    35 1
    3    31    36 1
    4    16    34 1
    5    15    16 1
    6    14    15 1
    7    13    14 1
    8    13    32 1
    9    12    13 1
   10    12    31 1
   11    11    12 1
   12    11    16 1
   13    10    11 1
   14     8     9 1
   15     7     8 1
   16     6     7 1
   17     5     6 1
   18     4     5 1
   19     4     9 1
   20     3     4 1
   21     2     3 1
   22     2    10 1
   23     1     2 1
   24    35    37 1
   25    31    38 1
   26    14    33 1
   27    10    30 1
   28     9    28 1
   29     9    29 1
   30     8    26 1
   31     8    27 1
   32     7    24 1
   33     7    25 1
   34     6    22 1
   35     6    23 1
   36     5    20 1
   37     5    21 1
   38     4    19 1
   39     3    17 1
   40     3    18 1
@<TRIPOS>SUBSTRUCTURE
      1 T06               1 ****               0 ****  **** 
