@<TRIPOS>MOLECULE
Cpptraj Generated mol2 file.
   39    40     1     0     0
SMALL
USER_CHARGES


@<TRIPOS>ATOM
      1 O1          9.1664    1.2930   20.9814 o          1 T04     -0.591100
      2 C1          8.5784    0.6542   21.8554 c          1 T04      0.670100
      3 C2          9.1933    0.2604   23.1854 c3         1 T04     -0.152400
      4 C3         10.7153    0.1287   23.0746 c3         1 T04     -0.061700
      5 C4         11.0691   -0.9959   22.1007 c3         1 T04     -0.075900
      6 C5         12.3146   -1.7705   22.5198 c3         1 T04     -0.074900
      7 C6         13.3700   -0.8620   23.1319 c3         1 T04     -0.077400
      8 C7         12.8414   -0.1019   24.3466 c3         1 T04     -0.074900
      9 C8         11.3206   -0.1487   24.4508 c3         1 T04     -0.075900
     10 N1          7.2305    0.3252   21.6872 ns         1 T04     -0.467100
     11 C9          6.5266    0.6326   20.5035 ca         1 T04      0.018300
     12 C10         5.3423    1.3739   20.5693 ca         1 T04     -0.195000
     13 C11         4.6737    1.6768   19.3716 ca         1 T04      0.072300
     14 C12         5.2536    1.2467   18.1427 ca         1 T04      0.314200
     15 N2          6.3728    0.5169   18.0734 nb         1 T04     -0.600000
     16 C13         6.9704    0.2054   19.2432 ca         1 T04      0.385300
     17 H22         8.7563   -0.6841   23.5820 hc         1 T04      0.074700
     18 H23         8.9269    1.0508   23.9243 hc         1 T04      0.074700
     19 H3         11.1523    1.0934   22.6996 hc         1 T04      0.065700
     20 H42        10.2310   -1.7140   21.9557 hc         1 T04      0.040950
     21 H43        11.1985   -0.5548   21.0966 hc         1 T04      0.040950
     22 H52        12.7407   -2.3024   21.6440 hc         1 T04      0.041700
     23 H53        12.0446   -2.5770   23.2347 hc         1 T04      0.041700
     24 H62        14.2582   -1.4643   23.4184 hc         1 T04      0.042200
     25 H63        13.7497   -0.1502   22.3706 hc         1 T04      0.042200
     26 H72        13.3098   -0.4919   25.2739 hc         1 T04      0.041700
     27 H73        13.1681    0.9572   24.2973 hc         1 T04      0.041700
     28 H82        10.9626    0.5852   25.2018 hc         1 T04      0.040950
     29 H83        10.9764   -1.1234   24.8500 hc         1 T04      0.040950
     30 H1          6.6949   -0.0707   22.4655 hn         1 T04      0.332500
     31 H10         4.9751    1.7156   21.5476 ha         1 T04      0.184000
     32 N3          3.4390    2.3000   19.3244 nu         1 T04     -0.730600
     33 H12         4.8184    1.5329   17.1788 h4         1 T04      0.028100
     34 Cl1         8.3599   -0.7742   19.0842 cl         1 T04     -0.174000
     35 C14         2.8723    2.8834   20.5414 c3         1 T04      0.175100
     36 HN3         3.2069    2.7604   18.4440 hn         1 T04      0.407800
     37 H141        1.9191    3.3974   20.3144 h1         1 T04      0.044367
     38 H142        2.6934    2.0920   21.2910 h1         1 T04      0.044367
     39 H143        3.5284    3.6439   21.0042 h1         1 T04      0.044367
@<TRIPOS>BOND
    1    32    35 1
    2    16    34 1
    3    15    16 1
    4    14    15 1
    5    13    14 1
    6    13    32 1
    7    12    13 1
    8    11    12 1
    9    11    16 1
   10    10    11 1
   11     8     9 1
   12     7     8 1
   13     6     7 1
   14     5     6 1
   15     4     5 1
   16     4     9 1
   17     3     4 1
   18     2     3 1
   19     2    10 1
   20     1     2 1
   21    35    37 1
   22    35    38 1
   23    35    39 1
   24    32    36 1
   25    14    33 1
   26    12    31 1
   27    10    30 1
   28     9    28 1
   29     9    29 1
   30     8    26 1
   31     8    27 1
   32     7    24 1
   33     7    25 1
   34     6    22 1
   35     6    23 1
   36     5    20 1
   37     5    21 1
   38     4    19 1
   39     3    17 1
   40     3    18 1
@<TRIPOS>SUBSTRUCTURE
      1 T04               1 ****               0 ****  **** 
