@<TRIPOS>MOLECULE
Cpptraj Generated mol2 file.
   29    30     1     0     0
SMALL
USER_CHARGES


@<TRIPOS>ATOM
      1 O1          8.5903    1.3100   20.7777 o          1 S92     -0.589100
      2 C1          8.0828    0.3611   21.3932 c          1 S92      0.757100
      3 N1          8.8168   -0.4417   22.2590 ns         1 S92     -0.452100
      4 C2         10.1631   -0.0717   22.5478 ca         1 S92      0.055600
      5 C3         10.4055    1.1509   23.1768 ca         1 S92     -0.156000
      6 C4         11.7141    1.5208   23.4599 ca         1 S92     -0.108500
      7 C5         12.7659    0.6816   23.1161 ca         1 S92     -0.149000
      8 C6         12.5142   -0.5351   22.4938 ca         1 S92     -0.108500
      9 C7         11.2133   -0.9302   22.2137 ca         1 S92     -0.156000
     10 N2          6.7005    0.0785   21.2851 ns         1 S92     -0.466100
     11 C8          6.0298    0.5926   20.1608 ca         1 S92     -0.022700
     12 C9          4.9000    1.3983   20.2814 ca         1 S92     -0.181000
     13 C10         4.2844    1.8715   19.1097 ca         1 S92      0.039300
     14 C11         4.8343    1.4852   17.8509 ca         1 S92      0.353200
     15 N3          5.9115    0.6993   17.7327 nb         1 S92     -0.620000
     16 C12         6.4784    0.2667   18.8747 ca         1 S92      0.468300
     17 H1          8.4902   -1.3605   22.5464 hn         1 S92      0.308500
     18 H3          9.5792    1.8206   23.4413 ha         1 S92      0.148000
     19 H4         11.9099    2.4826   23.9444 ha         1 S92      0.134000
     20 H5         13.7975    0.9893   23.3137 ha         1 S92      0.134000
     21 H6         13.3454   -1.1832   22.1990 ha         1 S92      0.134000
     22 H7         11.0202   -1.8898   21.7195 ha         1 S92      0.148000
     23 H2          6.1409   -0.2310   22.0893 hn         1 S92      0.307500
     24 H9          4.5245    1.6938   21.2709 ha         1 S92      0.143000
     25 N4          3.1316    2.6154   19.1660 nv         1 S92     -0.812200
     26 H11         4.4286    1.8698   16.9052 h4         1 S92      0.030100
     27 Cl1         7.8780   -0.7043   18.6809 cl         1 S92     -0.133000
     28 H41         2.9019    3.0880   20.0289 hn         1 S92      0.397800
     29 H42         2.8299    3.0910   18.3284 hn         1 S92      0.397800
@<TRIPOS>BOND
    1    16    27 1
    2    15    16 1
    3    14    15 1
    4    13    14 1
    5    13    25 1
    6    12    13 1
    7    11    12 1
    8    11    16 1
    9    10    11 1
   10     8     9 1
   11     7     8 1
   12     6     7 1
   13     5     6 1
   14     4     5 1
   15     4     9 1
   16     3     4 1
   17     2     3 1
   18     2    10 1
   19     1     2 1
   20    25    28 1
   21    25    29 1
   22    14    26 1
   23    12    24 1
   24    10    23 1
   25     9    22 1
   26     8    21 1
   27     7    20 1
   28     6    19 1
   29     5    18 1
   30     3    17 1
@<TRIPOS>SUBSTRUCTURE
      1 S92               1 ****               0 ****  **** 
