@<TRIPOS>MOLECULE
Cpptraj Generated mol2 file.
   42    43     1     0     0
SMALL
USER_CHARGES


@<TRIPOS>ATOM
      1 O1          9.0632    1.3305   20.9725 o          1 T05     -0.591100
      2 C1          8.5454    0.6274   21.8416 c          1 T05      0.670100
      3 C2          9.2087    0.2609   23.1545 c3         1 T05     -0.152400
      4 C3         10.7273    0.1136   23.0156 c3         1 T05     -0.061700
      5 C4         11.0713   -1.1006   22.1526 c3         1 T05     -0.075900
      6 C5         12.3262   -1.8314   22.6222 c3         1 T05     -0.074900
      7 C6         13.3871   -0.8688   23.1289 c3         1 T05     -0.077400
      8 C7         12.8735    0.0047   24.2711 c3         1 T05     -0.074900
      9 C8         11.3544   -0.0331   24.4020 c3         1 T05     -0.075900
     10 N1          7.2209    0.2066   21.7002 ns         1 T05     -0.467100
     11 C9          6.4021    0.6318   20.6329 ca         1 T05      0.007300
     12 C10         5.2199    1.3330   20.9051 ca         1 T05     -0.188000
     13 C11         4.4033    1.7396   19.8459 ca         1 T05      0.060300
     14 C12         4.8440    1.4575   18.5224 ca         1 T05      0.344200
     15 N2          5.9662    0.7802   18.2410 nb         1 T05     -0.611000
     16 C13         6.7055    0.3635   19.2953 ca         1 T05      0.398300
     17 H22         8.7733   -0.6631   23.6018 hc         1 T05      0.074700
     18 H23         8.9574    1.0714   23.8793 hc         1 T05      0.074700
     19 H3         11.1407    1.0361   22.5348 hc         1 T05      0.065700
     20 H42        10.2328   -1.8289   22.1030 hc         1 T05      0.040700
     21 H43        11.1852   -0.7658   21.1057 hc         1 T05      0.040700
     22 H52        12.7392   -2.4373   21.7897 hc         1 T05      0.041700
     23 H53        12.0765   -2.5762   23.4079 hc         1 T05      0.041700
     24 H62        14.2838   -1.4378   23.4527 hc         1 T05      0.042200
     25 H63        13.7535   -0.2407   22.2938 hc         1 T05      0.042200
     26 H72        13.3472   -0.3035   25.2258 hc         1 T05      0.041700
     27 H73        13.2077    1.0527   24.1142 hc         1 T05      0.041700
     28 H82        11.0089    0.7700   25.0855 hc         1 T05      0.040700
     29 H83        11.0150   -0.9726   24.8854 hc         1 T05      0.040700
     30 H1          6.7504   -0.3262   22.4355 hn         1 T05      0.331500
     31 H10         4.9620    1.5465   21.9517 ha         1 T05      0.185000
     32 N3          3.1067    2.2802   20.0366 nh         1 T05     -0.636000
     33 H12         4.2770    1.8001   17.6418 h4         1 T05      0.033100
     34 Cl1         8.0776   -0.5564   18.8893 cl         1 T05     -0.172000
     35 C14         2.7201    2.6151   21.4300 c3         1 T05      0.172100
     36 C15         2.7501    3.3817   19.1111 c3         1 T05      0.172100
     37 H141        1.6753    2.9760   21.4390 h1         1 T05      0.042533
     38 H142        2.7550    1.7121   22.0631 h1         1 T05      0.042533
     39 H143        3.3381    3.3972   21.9073 h1         1 T05      0.042533
     40 H151        3.0830    3.2007   18.0749 h1         1 T05      0.042533
     41 H152        1.6526    3.4899   19.0792 h1         1 T05      0.042533
     42 H153        3.1701    4.3610   19.3951 h1         1 T05      0.042533
@<TRIPOS>BOND
    1    32    35 1
    2    32    36 1
    3    16    34 1
    4    15    16 1
    5    14    15 1
    6    13    14 1
    7    13    32 1
    8    12    13 1
    9    11    12 1
   10    11    16 1
   11    10    11 1
   12     8     9 1
   13     7     8 1
   14     6     7 1
   15     5     6 1
   16     4     5 1
   17     4     9 1
   18     3     4 1
   19     2     3 1
   20     2    10 1
   21     1     2 1
   22    36    40 1
   23    36    41 1
   24    36    42 1
   25    35    37 1
   26    35    38 1
   27    35    39 1
   28    14    33 1
   29    12    31 1
   30    10    30 1
   31     9    28 1
   32     9    29 1
   33     8    26 1
   34     8    27 1
   35     7    24 1
   36     7    25 1
   37     6    22 1
   38     6    23 1
   39     5    20 1
   40     5    21 1
   41     4    19 1
   42     3    17 1
   43     3    18 1
@<TRIPOS>SUBSTRUCTURE
      1 T05               1 ****               0 ****  **** 
