@<TRIPOS>MOLECULE
Cpptraj Generated mol2 file.
   37    39     1     0     0
SMALL
USER_CHARGES


@<TRIPOS>ATOM
      1 O1          9.1865    1.3564   20.9693 o          1 T10     -0.572100
      2 C1          8.6327    0.7249   21.8724 c          1 T10      0.663100
      3 C2          9.2438    0.3455   23.2014 c3         1 T10     -0.150400
      4 C3         10.7595    0.1520   23.0643 c3         1 T10     -0.062700
      5 C4         11.0625   -1.0261   22.1368 c3         1 T10     -0.076400
      6 C5         12.3108   -1.8044   22.5466 c3         1 T10     -0.074900
      7 C6         13.3883   -0.8949   23.1140 c3         1 T10     -0.077400
      8 C7         12.8947   -0.1051   24.3237 c3         1 T10     -0.074900
      9 C8         11.3738   -0.1092   24.4372 c3         1 T10     -0.076400
     10 N1          7.2680    0.3832   21.7175 ns         1 T10     -0.480100
     11 C9          6.5636    0.6836   20.5462 cc         1 T10      0.026000
     12 N5          5.3519    1.3887   20.6616 na         1 T10      0.015700
     13 C11         4.5197    1.5864   19.5227 cc         1 T10     -0.158600
     14 C12         5.0533    1.2020   18.2406 cc         1 T10      0.460200
     15 N2          6.2103    0.5889   18.1092 nd         1 T10     -0.627000
     16 C13         6.9178    0.2954   19.2773 cd         1 T10      0.393300
     17 H22         8.7727   -0.5721   23.6339 hc         1 T10      0.077700
     18 H23         9.0047    1.1739   23.9108 hc         1 T10      0.077700
     19 H3         11.2112    1.0858   22.6390 hc         1 T10      0.067700
     20 H42        10.2077   -1.7323   22.0681 hc         1 T10      0.040700
     21 H43        11.1688   -0.6367   21.1090 hc         1 T10      0.040700
     22 H52        12.7072   -2.3523   21.6676 hc         1 T10      0.043200
     23 H53        12.0607   -2.6033   23.2779 hc         1 T10      0.043200
     24 H62        14.2820   -1.4978   23.3844 hc         1 T10      0.043700
     25 H63        13.7502   -0.2080   22.3241 hc         1 T10      0.043700
     26 H72        13.3497   -0.5122   25.2493 hc         1 T10      0.043200
     27 H73        13.2764    0.9350   24.2668 hc         1 T10      0.043200
     28 H82        11.0376    0.6393   25.1816 hc         1 T10      0.040700
     29 H83        11.0206   -1.0803   24.8377 hc         1 T10      0.040700
     30 H1          6.7345   -0.0723   22.4752 hn         1 T10      0.339500
     31 C15         4.6537    1.8609   21.7765 cc         1 T10     -0.170100
     32 N3          3.3286    2.1340   19.9002 nd         1 T10     -0.250600
     33 H12         4.4808    1.4133   17.3339 h4         1 T10      0.060100
     34 Cl1         8.2722   -0.6607   19.0513 cl         1 T10     -0.139000
     35 C14         3.4306    2.3097   21.2778 cd         1 T10     -0.000400
     36 H14         2.6172    2.7674   21.8421 h4         1 T10      0.188000
     37 H15         5.0210    1.8089   22.8096 h4         1 T10      0.202000
@<TRIPOS>BOND
    1    32    35 1
    2    31    35 1
    3    16    34 1
    4    15    16 1
    5    14    15 1
    6    13    14 1
    7    13    32 1
    8    12    13 1
    9    12    31 1
   10    11    12 1
   11    11    16 1
   12    10    11 1
   13     8     9 1
   14     7     8 1
   15     6     7 1
   16     5     6 1
   17     4     5 1
   18     4     9 1
   19     3     4 1
   20     2     3 1
   21     2    10 1
   22     1     2 1
   23    35    36 1
   24    31    37 1
   25    14    33 1
   26    10    30 1
   27     9    28 1
   28     9    29 1
   29     8    26 1
   30     8    27 1
   31     7    24 1
   32     7    25 1
   33     6    22 1
   34     6    23 1
   35     5    20 1
   36     5    21 1
   37     4    19 1
   38     3    17 1
   39     3    18 1
@<TRIPOS>SUBSTRUCTURE
      1 T10               1 ****               0 ****  **** 
