@<TRIPOS>MOLECULE
Cpptraj Generated mol2 file.
   31    33     1     0     0
SMALL
USER_CHARGES


@<TRIPOS>ATOM
      1 O1          8.8286    1.4047   20.8146 o          1 S95     -0.585100
      2 C1          8.3214    0.4916   21.4783 c          1 S95      0.759100
      3 N1          9.0561   -0.3446   22.3087 ns         1 S95     -0.451100
      4 C2         10.4259   -0.0268   22.5391 ca         1 S95      0.050600
      5 C3         10.7435    1.2093   23.1025 ca         1 S95     -0.153500
      6 C4         12.0731    1.5315   23.3353 ca         1 S95     -0.108500
      7 C5         13.0723    0.6265   23.0053 ca         1 S95     -0.146000
      8 C6         12.7452   -0.5973   22.4396 ca         1 S95     -0.108500
      9 C7         11.4242   -0.9404   22.2013 ca         1 S95     -0.153500
     10 N2          6.9193    0.2798   21.4615 ns         1 S95     -0.475100
     11 C8          6.1716    0.7339   20.3745 ca         1 S95     -0.025700
     12 C9          4.9905    1.5122   20.5558 ca         1 S95     -0.257600
     13 C10         4.1435    1.7360   19.4610 ca         1 S95      0.297300
     14 C11         4.5824    1.3198   18.1512 ca         1 S95      0.385900
     15 N3          5.7335    0.6967   17.9581 nb         1 S95     -0.632000
     16 C12         6.4820    0.3879   19.0670 ca         1 S95      0.497300
     17 H1          8.6965   -1.2267   22.6748 hn         1 S95      0.308500
     18 H3          9.9567    1.9316   23.3404 ha         1 S95      0.148500
     19 H4         12.3295    2.5077   23.7654 ha         1 S95      0.135000
     20 H5         14.1169    0.8972   23.1635 ha         1 S95      0.135000
     21 H6         13.5378   -1.2916   22.1624 ha         1 S95      0.135000
     22 H7         11.1774   -1.8991   21.7459 ha         1 S95      0.148500
     23 H2          6.4059   -0.1136   22.2557 hn         1 S95      0.311500
     24 N4          2.9101    2.3321   19.5967 nb         1 S95     -0.657000
     25 H11         3.9766    1.5399   17.2624 h4         1 S95      0.054100
     26 Cl1         7.8983   -0.4926   18.7299 cl         1 S95     -0.114000
     27 C15         4.5895    2.0806   21.8119 ca         1 S95      0.448200
     28 H15         5.2129    1.9936   22.7229 h4         1 S95      0.030100
     29 N5          3.4361    2.7135   21.9390 nb         1 S95     -0.675000
     30 C13         2.6062    2.7825   20.8227 ca         1 S95      0.631900
     31 H13         1.5992    3.2434   20.9650 h5         1 S95      0.064100
@<TRIPOS>BOND
    1    29    30 1
    2    27    29 1
    3    24    30 1
    4    16    26 1
    5    15    16 1
    6    14    15 1
    7    13    14 1
    8    13    24 1
    9    12    13 1
   10    12    27 1
   11    11    12 1
   12    11    16 1
   13    10    11 1
   14     8     9 1
   15     7     8 1
   16     6     7 1
   17     5     6 1
   18     4     5 1
   19     4     9 1
   20     3     4 1
   21     2     3 1
   22     2    10 1
   23     1     2 1
   24    30    31 1
   25    27    28 1
   26    14    25 1
   27    10    23 1
   28     9    22 1
   29     8    21 1
   30     7    20 1
   31     6    19 1
   32     5    18 1
   33     3    17 1
@<TRIPOS>SUBSTRUCTURE
      1 S95               1 ****               0 ****  **** 
