@<TRIPOS>MOLECULE
S97
   31    33     1     0     1 
SMALL
USER_CHARGES
@<TRIPOS>ATOM
  1 O1      8.746000    0.960000   20.716000 o     1 S97    -0.5851 ****
  2 C1      8.245000    0.016000   21.349000 c     1 S97     0.7521 ****
  3 N1      8.964000   -0.690000   22.310000 ns    1 S97    -0.4541 ****
  4 C2     10.283000   -0.242000   22.621000 ca    1 S97     0.0566 ****
  5 C3     10.436000    0.912000   23.392000 ca    1 S97    -0.1565 ****
  6 C4     11.717000    1.374000   23.670000 ca    1 S97    -0.1085 ****
  7 C5     12.826000    0.692000   23.186000 ca    1 S97    -0.1500 ****
  8 C6     12.660000   -0.468000   22.438000 ca    1 S97    -0.1085 ****
  9 C7     11.390000   -0.947000   22.145000 ca    1 S97    -0.1565 ****
 10 N2      6.914000   -0.389000   21.128000 ns    1 S97    -0.4481 ****
 11 C8      6.243000    0.183000   20.022000 ca    1 S97    -0.0217 ****
 12 C9      5.086000    0.960000   20.190000 ca    1 S97    -0.0878 ****
 13 C10     4.516000    1.556000   19.031000 ca    1 S97    -0.1665 ****
 14 C11     5.085000    1.338000   17.762000 ca    1 S97     0.4112 ****
 15 N3      6.167000    0.568000   17.619000 nb    1 S97    -0.6390 ****
 16 C12     6.736000    0.009000   18.732000 ca    1 S97     0.4813 ****
 17 H1      8.640000   -1.565000   22.714000 hn    1 S97     0.3075 ****
 18 H3      9.562000    1.454000   23.771000 ha    1 S97     0.1485 ****
 19 H4     11.842000    2.287000   24.262000 ha    1 S97     0.1330 ****
 20 H5     13.830000    1.083000   23.370000 ha    1 S97     0.1330 ****
 21 H6     13.537000   -1.001000   22.058000 ha    1 S97     0.1330 ****
 22 H7     11.263000   -1.851000   21.540000 ha    1 S97     0.1485 ****
 23 H2      6.351000   -0.839000   21.849000 hn    1 S97     0.3055 ****
 24 N4      3.407000    2.294000   19.431000 na    1 S97    -0.1754 ****
 25 H11     4.687000    1.821000   16.863000 h4    1 S97     0.0301 ****
 26 Cl1     7.993000   -0.812000   18.444000 cl    1 S97    -0.1350 ****
 27 C14     4.294000    1.359000   21.306000 cc    1 S97    -0.1982 ****
 28 H14     4.467000    1.083000   22.340000 ha    1 S97     0.1600 ****
 29 C13     3.293000    2.186000   20.821000 cd    1 S97    -0.0861 ****
 30 H13     2.497000    2.700000   21.375000 h4    1 S97     0.1720 ****
 31 HN4     2.912000    2.948000   18.834000 hn    1 S97     0.3067 ****
@<TRIPOS>BOND
    1     1     2 1
    2     2     3 1
    3     2    10 1
    4     3     4 1
    5     3    17 1
    6     4     5 1
    7     4     9 1
    8     5     6 1
    9     5    18 1
   10     6     7 1
   11     6    19 1
   12     7     8 1
   13     7    20 1
   14     8     9 1
   15     8    21 1
   16     9    22 1
   17    10    11 1
   18    10    23 1
   19    11    12 1
   20    11    16 1
   21    12    13 1
   22    12    27 1
   23    13    14 1
   24    13    24 1
   25    14    15 1
   26    14    25 1
   27    15    16 1
   28    16    26 1
   29    24    29 1
   30    24    31 1
   31    27    28 1
   32    27    29 1
   33    29    30 1
@<TRIPOS>SUBSTRUCTURE
      1  S97              1 ****               0 ****  **** 
