@<TRIPOS>MOLECULE
Cpptraj Generated mol2 file.
   35    36     1     0     0
SMALL
USER_CHARGES


@<TRIPOS>ATOM
      1 O1          8.6225    1.2047   20.7285 o          1 S94     -0.612100
      2 C1          8.2177    0.1890   21.3147 c          1 S94      0.775100
      3 N1          9.0370   -0.6095   22.1074 ns         1 S94     -0.461100
      4 C2         10.3466   -0.1564   22.4303 ca         1 S94      0.059600
      5 C3         10.4983    1.0739   23.0734 ca         1 S94     -0.155500
      6 C4         11.7749    1.5102   23.4001 ca         1 S94     -0.109000
      7 C5         12.8792    0.7251   23.0962 ca         1 S94     -0.148000
      8 C6         12.7136   -0.5043   22.4711 ca         1 S94     -0.109000
      9 C7         11.4479   -0.9672   22.1431 ca         1 S94     -0.155500
     10 N2          6.8620   -0.1909   21.2535 ns         1 S94     -0.462100
     11 C8          6.0823    0.4333   20.2617 ca         1 S94      0.008300
     12 C9          4.9455    1.1708   20.5856 ca         1 S94     -0.175000
     13 C10         4.1896    1.7393   19.5513 ca         1 S94      0.080300
     14 C11         4.6422    1.5452   18.2134 ca         1 S94      0.324200
     15 N3          5.7548    0.8587   17.8941 nb         1 S94     -0.605000
     16 C12         6.4390    0.3062   18.9131 ca         1 S94      0.392300
     17 H1          8.7942   -1.5775   22.3118 hn         1 S94      0.310500
     18 H3          9.6250    1.6840   23.3294 ha         1 S94      0.148500
     19 H4         11.9010    2.4754   23.8985 ha         1 S94      0.134500
     20 H5         13.8845    1.0833   23.3311 ha         1 S94      0.134000
     21 H6         13.5846   -1.1138   22.2180 ha         1 S94      0.134500
     22 H7         11.3179   -1.9456   21.6654 ha         1 S94      0.148500
     23 H2          6.3824   -0.6901   22.0059 hn         1 S94      0.322500
     24 H9          4.6645    1.2864   21.6406 ha         1 S94      0.181000
     25 N4          2.9397    2.3340   19.8171 nh         1 S94     -0.650000
     26 H11         4.0885    1.9387   17.3485 h4         1 S94      0.031100
     27 Cl1         7.8017   -0.6270   18.4926 cl         1 S94     -0.172000
     28 C13         2.6999    2.7812   21.2186 c3         1 S94      0.183600
     29 C14         2.5022    3.3908   18.8724 c3         1 S94      0.183600
     30 H131        1.6851    3.2077   21.2905 h1         1 S94      0.043533
     31 H132        2.7353    1.9245   21.9154 h1         1 S94      0.043533
     32 H133        3.4026    3.5520   21.5856 h1         1 S94      0.043533
     33 H141        1.4028    3.4524   18.9077 h1         1 S94      0.043533
     34 H142        2.7884    3.1795   17.8253 h1         1 S94      0.043533
     35 H143        2.8984    4.3947   19.1078 h1         1 S94      0.043533
@<TRIPOS>BOND
    1    25    28 1
    2    25    29 1
    3    16    27 1
    4    15    16 1
    5    14    15 1
    6    13    14 1
    7    13    25 1
    8    12    13 1
    9    11    12 1
   10    11    16 1
   11    10    11 1
   12     8     9 1
   13     7     8 1
   14     6     7 1
   15     5     6 1
   16     4     5 1
   17     4     9 1
   18     3     4 1
   19     2     3 1
   20     2    10 1
   21     1     2 1
   22    29    33 1
   23    29    34 1
   24    29    35 1
   25    28    30 1
   26    28    31 1
   27    28    32 1
   28    14    26 1
   29    12    24 1
   30    10    23 1
   31     9    22 1
   32     8    21 1
   33     7    20 1
   34     6    19 1
   35     5    18 1
   36     3    17 1
@<TRIPOS>SUBSTRUCTURE
      1 S94               1 ****               0 ****  **** 
