@<TRIPOS>MOLECULE
Cpptraj Generated mol2 file.
   38    40     1     0     0
SMALL
USER_CHARGES


@<TRIPOS>ATOM
      1 C1         13.6650   -1.5477   23.3581 c3         1 S80      0.083100
      2 N1         12.2203   -1.1315   23.5665 nx         1 S80     -0.679400
      3 O1          8.8389    1.2440   21.0866 o          1 S80     -0.533100
      4 C2         11.2924   -2.0624   22.7816 c3         1 S80      0.074300
      5 N2          9.6674   -0.2629   22.5719 n          1 S80     -0.499800
      6 C3          9.8381   -1.6387   23.0607 c3         1 S80      0.069500
      7 N3          6.1244   -0.0250   17.8592 na         1 S80     -0.265100
      8 C4         10.5283    0.7056   23.2635 c3         1 S80      0.069500
      9 N4          4.2666    1.4592   18.5321 nb         1 S80     -0.650000
     10 C5         12.0152    0.3137   23.1146 c3         1 S80      0.074300
     11 C6          8.8222    0.0934   21.5262 c          1 S80      0.659100
     12 C7          7.8977   -0.9800   20.9818 c3         1 S80     -0.048200
     13 C8          7.0289   -0.4329   19.9282 cc         1 S80     -0.150400
     14 C9          7.1199   -0.6921   18.5759 cd         1 S80      0.068300
     15 C10         5.3701    0.6839   18.7961 ca         1 S80      0.436800
     16 C11         3.6979    1.9743   19.6333 ca         1 S80      0.424200
     17 C12         4.1490    1.7709   20.9614 ca         1 S80     -0.255300
     18 C13         5.2680    1.0026   21.2023 ca         1 S80     -0.058000
     19 C14         5.9071    0.4372   20.0958 ca         1 S80     -0.183100
     20 HN1        11.9753   -1.2179   24.5960 hn         1 S80      0.447800
     21 H22        11.4710   -3.1293   23.0811 hx         1 S80      0.109700
     22 H23        11.5275   -2.0307   21.6858 hx         1 S80      0.109700
     23 H32         9.1595   -2.3879   22.5868 h1         1 S80      0.097200
     24 H33         9.5736   -1.6939   24.1484 h1         1 S80      0.097200
     25 H42        10.4011    1.7457   22.8789 h1         1 S80      0.097200
     26 H43        10.2277    0.7683   24.3385 h1         1 S80      0.097200
     27 H52        12.6629    1.0115   23.7052 hx         1 S80      0.109700
     28 H53        12.3657    0.4303   22.0636 hx         1 S80      0.109700
     29 H72         8.4944   -1.8242   20.5569 hc         1 S80      0.077200
     30 H73         7.2564   -1.3996   21.7938 hc         1 S80      0.077200
     31 Cl1         8.1819   -1.7196   17.8166 cl         1 S80     -0.035400
     32 H11         2.8128    2.5969   19.4337 h4         1 S80      0.036100
     33 H12         3.5922    2.2377   21.7838 ha         1 S80      0.152000
     34 H13         5.6441    0.8248   22.2205 ha         1 S80      0.133000
     35 HN3         6.0540    0.0017   16.8429 hn         1 S80      0.329700
     36 H14        13.8512   -2.5715   23.7551 hx         1 S80      0.106033
     37 H15        13.9412   -1.5502   22.2857 hx         1 S80      0.106033
     38 H16        14.3613   -0.8676   23.8880 hx         1 S80      0.106033
@<TRIPOS>BOND
    1    18    19 1
    2    17    18 1
    3    16    17 1
    4    15    19 1
    5    14    31 1
    6    13    14 1
    7    13    19 1
    8    12    13 1
    9    11    12 1
   10     9    15 1
   11     9    16 1
   12     8    10 1
   13     7    14 1
   14     7    15 1
   15     5    11 1
   16     5     6 1
   17     5     8 1
   18     4     6 1
   19     3    11 1
   20     2     4 1
   21     2    10 1
   22     1     2 1
   23    18    34 1
   24    17    33 1
   25    16    32 1
   26    12    29 1
   27    12    30 1
   28    10    27 1
   29    10    28 1
   30     8    25 1
   31     8    26 1
   32     7    35 1
   33     6    23 1
   34     6    24 1
   35     4    21 1
   36     4    22 1
   37     2    20 1
   38     1    36 1
   39     1    37 1
   40     1    38 1
@<TRIPOS>SUBSTRUCTURE
      1 S80               1 ****               0 ****  **** 
