@<TRIPOS>MOLECULE
S40
   40    42     1     0     0
SMALL
bcc


@<TRIPOS>ATOM
      1 O1           9.3680     1.1120    21.0320 o          1 S40      -0.588100
      2 C1           8.8120     0.3220    21.7270 c          1 S40       0.661100
      3 C2           9.3520    -0.1440    23.0660 c3         1 S40      -0.152400
      4 C3          10.8670    -0.0690    23.1260 c3         1 S40      -0.061700
      5 C4          11.5080    -1.0370    22.1340 c3         1 S40      -0.075900
      6 C5          12.7630    -1.7020    22.6880 c3         1 S40      -0.074900
      7 C6          13.5520    -0.8480    23.6720 c3         1 S40      -0.077400
      8 C7          12.7110    -0.1420    24.7310 c3         1 S40      -0.074900
      9 C8          11.2210    -0.3910    24.5640 c3         1 S40      -0.075900
     10 N1           7.5600    -0.2470    21.3550 ns         1 S40      -0.459100
     11 C9           6.9510     0.1800    20.1360 cc         1 S40      -0.090700
     12 C10          5.7070     0.7820    20.2730 cc         1 S40       0.053700
     13 N4           5.0950     1.2170    19.1050 na         1 S40      -0.264200
     14 C12          5.7610     1.0320    17.9010 cc         1 S40       0.562400
     15 N2           6.9560     0.4630    17.8400 nd         1 S40      -0.708000
     16 C13          7.5800     0.0350    18.9160 cd         1 S40       0.389200
     17 H22          9.0440    -1.1770    23.2290 hc         1 S40       0.073700
     18 H23          8.9340     0.4810    23.8550 hc         1 S40       0.073700
     19 H3          11.1870     0.9470    22.8950 hc         1 S40       0.066700
     20 H42         10.7830    -1.8120    21.8860 hc         1 S40       0.039950
     21 H43         11.7680    -0.4920    21.2260 hc         1 S40       0.039950
     22 H52         13.4160    -1.9460    21.8500 hc         1 S40       0.041700
     23 H53         12.4750    -2.6280    23.1850 hc         1 S40       0.041700
     24 H62         14.2670    -1.4940    24.1830 hc         1 S40       0.042700
     25 H63         14.1050    -0.0950    23.1110 hc         1 S40       0.042700
     26 H72         13.0160    -0.5010    25.7140 hc         1 S40       0.041700
     27 H73         12.8980     0.9300    24.6740 hc         1 S40       0.041700
     28 H82         10.6580     0.2530    25.2390 hc         1 S40       0.039950
     29 H83         10.9950    -1.4360    24.7750 hc         1 S40       0.039950
     30 H1           7.1130    -0.9380    21.9410 hn         1 S40       0.322500
     31 C16          4.9850     0.9590    21.4830 cd         1 S40      -0.271000
     32 N3           4.0000     2.0910    19.1480 na         1 S40      -0.116400
     33 H12          5.2910     1.3620    16.9860 h5         1 S40       0.061100
     34 H13          8.5580    -0.4180    18.8470 h4         1 S40       0.065100
     35 C14          3.2110     2.1410    20.2800 cc         1 S40      -0.197300
     36 HN3          4.0610     2.9180    18.5460 hn         1 S40       0.201700
     37 C15          3.7350     1.6250    21.4720 cd         1 S40      -0.108000
     38 H14          2.3500     2.8000    20.2600 h4         1 S40       0.165000
     39 H15          3.2190     1.8000    22.4100 ha         1 S40       0.145000
     40 H16          5.3960     0.6290    22.4320 ha         1 S40       0.142000
@<TRIPOS>BOND
     1     1     2 2   
     2     2     3 1   
     3     2    10 1   
     4     4     3 1   
     5    10    11 1   
     6     4     5 1   
     7     4     9 1   
     8     5     6 1   
     9     9     8 1   
    10     6     7 1   
    11     7     8 1   
    12    11    12 1   
    13    11    16 2   
    14    12    13 1   
    15    16    15 1   
    16    13    14 1   
    17    14    15 2   
    18    17     3 1   
    19    18     3 1   
    20    19     4 1   
    21    20     5 1   
    22    21     5 1   
    23    22     6 1   
    24    23     6 1   
    25    24     7 1   
    26    25     7 1   
    27    26     8 1   
    28    27     8 1   
    29    28     9 1   
    30    29     9 1   
    31    30    10 1   
    32    31    12 2   
    33    32    13 1   
    34    33    14 1   
    35    34    16 1   
    36    35    32 1   
    37    36    32 1   
    38    37    35 2   
    39    38    35 1   
    40    37    31 1   
    41    39    37 1   
    42    40    31 1   
@<TRIPOS>SUBSTRUCTURE
     1 S40         1 TEMP              0 ****  ****    0 ROOT
