@<TRIPOS>MOLECULE
S28
   33    35     1     0     0
SMALL
bcc


@<TRIPOS>ATOM
      1 O1           9.0980     0.7170    20.8630 o          1 S28      -0.606100
      2 C1           8.5440    -0.2000    21.3730 c          1 S28       0.758100
      3 N1           9.1810    -0.9260    22.4450 ns         1 S28      -0.458100
      4 C2          10.4660    -0.4470    22.8510 ca         1 S28       0.056600
      5 C3          10.5000     0.3870    23.9490 ca         1 S28      -0.155500
      6 C4          11.7040     0.9000    24.3650 ca         1 S28      -0.108500
      7 C5          12.8650     0.5840    23.6730 ca         1 S28      -0.149000
      8 C6          12.8230    -0.2500    22.5690 ca         1 S28      -0.108500
      9 C7          11.6120    -0.7630    22.1470 ca         1 S28      -0.155500
     10 N2           7.2370    -0.6260    20.9410 ns         1 S28      -0.442100
     11 C8           6.5590     0.0580    19.8740 cc         1 S28      -0.117700
     12 C9           5.3530     0.6830    20.1520 cc         1 S28       0.061700
     13 N5           4.7260     1.3390    19.1050 na         1 S28      -0.264200
     14 C11          5.3210     1.3050    17.8490 cc         1 S28       0.576400
     15 N3           6.4720     0.7100    17.6440 nd         1 S28      -0.718000
     16 C12          7.1030     0.0840    18.6020 cd         1 S28       0.431200
     17 H1           8.7450    -1.7250    22.8830 hn         1 S28       0.306500
     18 H3           9.5900     0.6340    24.4760 ha         1 S28       0.148500
     19 H4          11.7470     1.5480    25.2280 ha         1 S28       0.134000
     20 H5          13.8100     0.9930    23.9990 ha         1 S28       0.134000
     21 H6          13.7320    -0.4980    22.0410 ha         1 S28       0.134000
     22 H7          11.5620    -1.4030    21.2780 ha         1 S28       0.148500
     23 H2           6.7930    -1.4130    21.3920 hn         1 S28       0.308500
     24 N4           3.7160     2.2910    19.3140 na         1 S28      -0.107400
     25 H11          4.8220     1.7820    17.0190 h5         1 S28       0.063100
     26 H12          8.0430    -0.4100    18.4020 h4         1 S28       0.061100
     27 HN4          3.6870     3.0740    18.6550 hn         1 S28       0.196700
     28 C15          4.8550     0.8990    21.4550 cd         1 S28      -0.277000
     29 H15          5.3680     0.4740    22.3190 ha         1 S28       0.139000
     30 C14          3.7940     1.8120    21.6650 cd         1 S28      -0.103000
     31 H14          3.5160     2.0800    22.6810 ha         1 S28       0.145000
     32 C13          3.1890     2.4700    20.5830 cc         1 S28      -0.200300
     33 H13          2.4810     3.2950    20.7220 h4         1 S28       0.167000
@<TRIPOS>BOND
     1     1     2 2   
     2     2     3 1   
     3     2    10 1   
     4     3     4 1   
     5    10    11 1   
     6     4     5 ar  
     7     4     9 ar  
     8     5     6 ar  
     9     9     8 ar  
    10     6     7 ar  
    11     7     8 ar  
    12    11    12 1   
    13    11    16 2   
    14    12    13 1   
    15    16    15 1   
    16    13    14 1   
    17    14    15 2   
    18    17     3 1   
    19    18     5 1   
    20    19     6 1   
    21    20     7 1   
    22    21     8 1   
    23    22     9 1   
    24    23    10 1   
    25    24    13 1   
    26    25    14 1   
    27    26    16 1   
    28    27    24 1   
    29    28    12 2   
    30    29    28 1   
    31    30    28 1   
    32    31    30 1   
    33    32    30 2   
    34    33    32 1   
    35    32    24 1   
@<TRIPOS>SUBSTRUCTURE
     1 S28         1 TEMP              0 ****  ****    0 ROOT
