
     RDKit          3D

 19 21  0  0  0  0  0  0  0  0999 V2000
   13.6480   -1.2550   23.6480 C   0  0  0  0  0  0  0  0  0  0  0  0
   12.2390   -0.8780   23.7570 N   0  0  0  0  0  0  0  0  0  0  0  0
    8.9230    1.3970   21.1680 O   0  0  0  0  0  0  0  0  0  0  0  0
   11.3880   -1.8230   23.0280 C   0  0  0  0  0  0  0  0  0  0  0  0
    9.7480   -0.0820   22.6510 N   0  0  0  0  0  0  0  0  0  0  0  0
    9.9340   -1.4380   23.1600 C   0  0  0  0  0  0  0  0  0  0  0  0
    6.5800    0.3540   17.8320 N   0  0  0  0  0  0  0  0  0  0  0  0
   10.5730    0.8830   23.3740 C   0  0  0  0  0  0  0  0  0  0  0  0
    4.5880    1.5410   18.5160 N   0  0  0  0  0  0  0  0  0  0  0  0
   12.0250    0.4840   23.2600 C   0  0  0  0  0  0  0  0  0  0  0  0
    8.9920    0.2440   21.5880 C   0  0  0  0  0  0  0  0  0  0  0  0
    8.2360   -0.8750   20.8870 C   0  0  0  0  0  0  0  0  0  0  0  0
    7.3660   -0.2900   19.8260 C   0  0  0  0  0  0  0  0  0  0  0  0
    7.5820   -0.3190   18.4810 C   0  0  0  0  0  0  0  0  0  0  0  0
    5.6960    0.8250   18.7560 C   0  0  0  0  0  0  0  0  0  0  0  0
    3.8920    1.8900   19.6050 C   0  0  0  0  0  0  0  0  0  0  0  0
    4.2520    1.5750   20.9130 C   0  0  0  0  0  0  0  0  0  0  0  0
    5.4030    0.8520   21.1410 C   0  0  0  0  0  0  0  0  0  0  0  0
    6.1580    0.4520   20.0330 C   0  0  0  0  0  0  0  0  0  0  0  0
  1  2  1  0
  2  4  1  0
  2 10  1  0
  4  6  1  0
 10  8  1  0
  3 11  2  0
 11  5  1  0
 11 12  1  0
  6  5  1  0
  5  8  1  0
  7 14  1  0
  7 15  1  0
 14 13  2  0
 15  9  2  0
 15 19  1  0
  9 16  1  0
 16 17  2  0
 12 13  1  0
 13 19  1  0
 19 18  2  0
 17 18  1  0
M  END
