@<TRIPOS>MOLECULE
SPE_0063
42 43 1 0 0
SMALL
NO_CHARGES


@<TRIPOS>ATOM
      1 O1          9.2230    1.2370   20.9990 O.2       1 S63   -0.5831
      2 C1          8.7430    0.4050   21.7710 C.2       1 S63    0.6661
      3 C2          9.3810   -0.0180   23.0790 C.3       1 S63   -0.1534
      4 C3         10.9080   -0.0320   22.9670 C.3       1 S63   -0.0617
      5 C4         11.3660   -1.1380   22.0110 C.3       1 S63   -0.0749
      6 C5         12.5770   -1.9050   22.5330 C.3       1 S63   -0.0749
      7 C6         13.6110   -1.0020   23.1860 C.3       1 S63   -0.0774
      8 C7         13.0220   -0.1090   24.2750 C.3       1 S63   -0.0749
      9 C8         11.5060   -0.2300   24.3600 C.3       1 S63   -0.0749
     10 N1          7.4960   -0.1480   21.5010 N.am      1 S63   -0.4681
     11 C9          6.7180    0.3080   20.4050 C.ar      1 S63   -0.0207
     12 C10         5.4780    0.9140   20.6650 C.ar      1 S63   -0.2120
     13 C11         4.7230    1.3750   19.5920 C.ar      1 S63    0.0473
     14 C12         5.2380    1.1790   18.2880 C.ar      1 S63    0.3432
     15 N2          6.4250    0.5900   18.0320 N.ar      1 S63   -0.6270
     16 C13         7.1600    0.1670   19.0790 C.ar      1 S63    0.3442
     17 H22         9.0190   -1.0090   23.4380 H         1 S63    0.0732
     18 H23         9.0450    0.7050   23.8580 H         1 S63    0.0732
     19 H3         11.2590    0.9570   22.5760 H         1 S63    0.0677
     20 H42        10.5520   -1.8630   21.7940 H         1 S63    0.0395
     21 H43        11.5760   -0.7000   21.0160 H         1 S63    0.0395
     22 H52        13.0530   -2.4620   21.6990 H         1 S63    0.0415
     23 H53        12.2540   -2.6930   23.2460 H         1 S63    0.0415
     24 H62        14.4280   -1.6290   23.6040 H         1 S63    0.0427
     25 H63        14.1040   -0.3830   22.4100 H         1 S63    0.0427
     26 H72        13.4810   -0.3550   25.2540 H         1 S63    0.0415
     27 H73        13.3040    0.9510   24.0920 H         1 S63    0.0415
     28 H82        11.1020    0.5160   25.0760 H         1 S63    0.0395
     29 H83        11.2000   -1.2090   24.7820 H         1 S63    0.0395
     30 H1          7.0490   -0.8080   22.1330 H         1 S63    0.3165
     31 H10         5.1490    1.0120   21.7090 H         1 S63    0.1330
     32 N3          3.4180    1.9150   19.7530 N.3       1 S63   -0.6360
     33 H12         4.6940    1.5200   17.3960 H         1 S63    0.0271
     34 F1          8.2295   -0.3655   18.8061 F         1 S63    0.0631
     35 C14         2.9510    2.1330   21.1470 C.3       1 S63    0.1726
     36 C15         3.1510    3.1170   18.9220 C.3       1 S63    0.1726
     37 H141        1.9130    2.5140   21.1310 H         1 S63    0.0382
     38 H142        2.9380    1.1780   21.7000 H         1 S63    0.0382
     39 H143        3.5440    2.8570   21.7370 H         1 S63    0.0382
     40 H151        3.6130    3.0500   17.9220 H         1 S63    0.0382
     41 H152        2.0610    3.2210   18.7650 H         1 S63    0.0382
     42 H153        3.5140    4.0590   19.3680 H         1 S63    0.0382
@<TRIPOS>BOND
     1    1    2 2
     2    2    3 1
     3    2   10 am
     4    3    4 1
     5    3   17 1
     6    3   18 1
     7    4    5 1
     8    4    9 1
     9    4   19 1
    10    5    6 1
    11    5   20 1
    12    5   21 1
    13    6    7 1
    14    6   22 1
    15    6   23 1
    16    7    8 1
    17    7   24 1
    18    7   25 1
    19    8    9 1
    20    8   26 1
    21    8   27 1
    22    9   28 1
    23    9   29 1
    24   10   11 1
    25   10   30 1
    26   11   12 ar
    27   11   16 ar
    28   12   13 ar
    29   12   31 1
    30   13   14 ar
    31   13   32 1
    32   14   15 ar
    33   14   33 1
    34   15   16 ar
    35   16   34 1
    36   32   35 1
    37   32   36 1
    38   35   37 1
    39   35   38 1
    40   35   39 1
    41   36   40 1
    42   36   41 1
    43   36   42 1
@<TRIPOS>SUBSTRUCTURE
     1 S63     1 RESIDUE           4 A     S63     0 ROOT
