@<TRIPOS>MOLECULE
SPE_0051
35 36 1 0 0
SMALL
NO_CHARGES


@<TRIPOS>ATOM
      1 O1          8.7920    0.8760   20.6980 O.2       1 S51   -0.6001
      2 C1          8.3380   -0.1150   21.2920 C.2       1 S51    0.7681
      3 N1          9.0890   -0.8320   22.2230 N.pl3     1 S51   -0.4611
      4 C2         10.3700   -0.3210   22.5850 C.ar      1 S51    0.0576
      5 C3         10.4340    0.8040   23.4120 C.ar      1 S51   -0.1550
      6 C4         11.6780    1.3310   23.7390 C.ar      1 S51   -0.1085
      7 C5         12.8330    0.7340   23.2500 C.ar      1 S51   -0.1490
      8 C6         12.7580   -0.4030   22.4560 C.ar      1 S51   -0.1085
      9 C7         11.5270   -0.9430   22.1130 C.ar      1 S51   -0.1550
     10 N2          7.0300   -0.5730   21.0620 N.pl3     1 S51   -0.4591
     11 C8          6.2780    0.1040   20.0630 C.ar      1 S51   -0.0197
     12 C9          5.1650    0.8620   20.4160 C.ar      1 S51   -0.2140
     13 C10         4.4390    1.5100   19.4050 C.ar      1 S51    0.0693
     14 C11         4.8980    1.3490   18.0730 C.ar      1 S51    0.3212
     15 N3          5.9720    0.6190   17.7310 N.ar      1 S51   -0.6210
     16 C12         6.6610    0.0050   18.7170 C.ar      1 S51    0.3502
     17 H1          8.8010   -1.7370   22.5880 H         1 S51    0.3055
     18 H3          9.5190    1.2710   23.8000 H         1 S51    0.1485
     19 H4         11.7330    2.2250   24.3750 H         1 S51    0.1340
     20 H5         13.8070    1.1830   23.4620 H         1 S51    0.1340
     21 H6         13.6750   -0.8720   22.0820 H         1 S51    0.1340
     22 H7         11.4650   -1.8310   21.4750 H         1 S51    0.1485
     23 H2          6.5040   -1.0940   21.7680 H         1 S51    0.3065
     24 H9          4.8810    0.9480   21.4740 H         1 S51    0.1340
     25 N4          3.2190    2.1670   19.7060 N.3       1 S51   -0.6480
     26 H11         4.3860    1.8560   17.2350 H         1 S51    0.0241
     27 F1          7.6441   -0.6381   18.3681 F         1 S51    0.0591
     28 C13         3.0810    2.6520   21.1040 C.3       1 S51    0.1831
     29 C14         2.7710    3.2020   18.7430 C.3       1 S51    0.1831
     30 H131        2.1300    3.1990   21.2220 H         1 S51    0.0397
     31 H132        3.0590    1.7980   21.8010 H         1 S51    0.0397
     32 H133        3.8860    3.3340   21.4280 H         1 S51    0.0397
     33 H141        1.6640    3.1940   18.7130 H         1 S51    0.0397
     34 H142        3.1310    3.0340   17.7130 H         1 S51    0.0397
     35 H143        3.0850    4.2280   19.0030 H         1 S51    0.0397
@<TRIPOS>BOND
     1    1    2 2
     2    2    3 2
     3    2   10 2
     4    3    4 1
     5    3   17 1
     6    4    5 ar
     7    4    9 ar
     8    5    6 ar
     9    5   18 1
    10    6    7 ar
    11    6   19 1
    12    7    8 ar
    13    7   20 1
    14    8    9 ar
    15    8   21 1
    16    9   22 1
    17   10   11 1
    18   10   23 1
    19   11   12 ar
    20   11   16 ar
    21   12   13 ar
    22   12   24 1
    23   13   14 ar
    24   13   25 1
    25   14   15 ar
    26   14   26 1
    27   15   16 ar
    28   16   27 1
    29   25   28 1
    30   25   29 1
    31   28   30 1
    32   28   31 1
    33   28   32 1
    34   29   33 1
    35   29   34 1
    36   29   35 1
@<TRIPOS>SUBSTRUCTURE
     1 S51     1 RESIDUE           4 A     S51     0 ROOT
