@<TRIPOS>MOLECULE
S76
   37    39     1     0     0
SMALL
bcc


@<TRIPOS>ATOM
      1 C1          13.6480    -1.2550    23.6480 c3         1 S76       0.083100
      2 N1          12.2390    -0.8780    23.7570 nx         1 S76      -0.679400
      3 O1           8.9230     1.3970    21.1680 o          1 S76      -0.536100
      4 C2          11.3880    -1.8230    23.0280 c3         1 S76       0.075300
      5 N2           9.7480    -0.0820    22.6510 n          1 S76      -0.498800
      6 C3           9.9340    -1.4380    23.1600 c3         1 S76       0.069500
      7 N3           6.5800     0.3540    17.8320 na         1 S76      -0.289100
      8 C4          10.5730     0.8830    23.3740 c3         1 S76       0.069500
      9 N4           4.5880     1.5410    18.5160 nb         1 S76      -0.674000
     10 C5          12.0250     0.4840    23.2600 c3         1 S76       0.075300
     11 C6           8.9920     0.2440    21.5880 c          1 S76       0.659100
     12 C7           8.2360    -0.8750    20.8870 c3         1 S76      -0.049200
     13 C8           7.3660    -0.2900    19.8260 cc         1 S76      -0.160400
     14 C9           7.5820    -0.3190    18.4810 cd         1 S76       0.205400
     15 C10          5.6960     0.8250    18.7560 ca         1 S76       0.462800
     16 C11          3.8920     1.8900    19.6050 ca         1 S76       0.650900
     17 N5           4.2520     1.5750    20.9130 nb         1 S76      -0.693000
     18 C13          5.4030     0.8520    21.1410 ca         1 S76       0.470200
     19 C14          6.1580     0.4520    20.0330 ca         1 S76      -0.302400
     20 HN1         11.9780    -0.9040    24.7330 hn         1 S76       0.448800
     21 H22         11.5320    -2.8230    23.4360 hx         1 S76       0.110450
     22 H23         11.6670    -1.8200    21.9740 hx         1 S76       0.110450
     23 H32          9.3200    -2.1310    22.5840 h1         1 S76       0.097950
     24 H33          9.6410    -1.4770    24.2090 h1         1 S76       0.097950
     25 H42         10.4340     1.8750    22.9440 h1         1 S76       0.097950
     26 H43         10.2810     0.8970    24.4240 h1         1 S76       0.097950
     27 H52         12.6310     1.1760    23.8450 hx         1 S76       0.110450
     28 H53         12.3300     0.5360    22.2150 hx         1 S76       0.110450
     29 H72          8.9460    -1.5670    20.4350 hc         1 S76       0.079700
     30 H73          7.6190    -1.4070    21.6110 hc         1 S76       0.079700
     31 F1           8.5320    -0.8660    17.9330 f          1 S76      -0.125500
     32 H11          2.9850     2.4570    19.4590 h5         1 S76       0.070100
     33 H13          5.7130     0.6020    22.1450 h4         1 S76       0.024100
     34 HN3          6.5080     0.4800    16.8320 hn         1 S76       0.334700
     35 H14         13.7830    -2.2700    24.0230 hx         1 S76       0.106367
     36 H15         13.9560    -1.2100    22.6040 hx         1 S76       0.106367
     37 H16         14.2550    -0.5670    24.2360 hx         1 S76       0.106367
@<TRIPOS>BOND
     1     1     2 1   
     2     2     4 1   
     3     2    10 1   
     4     4     6 1   
     5    10     8 1   
     6     3    11 2   
     7    11     5 1   
     8    11    12 1   
     9     6     5 1   
    10     5     8 1   
    11     7    14 1   
    12     7    15 1   
    13    14    13 2   
    14    15     9 ar  
    15    15    19 ar  
    16     9    16 ar  
    17    16    17 ar  
    18    12    13 1   
    19    13    19 1   
    20    19    18 ar  
    21    17    18 ar  
    22    20     2 1   
    23    21     4 1   
    24    22     4 1   
    25    23     6 1   
    26    24     6 1   
    27    25     8 1   
    28    26     8 1   
    29    27    10 1   
    30    28    10 1   
    31    29    12 1   
    32    30    12 1   
    33    31    14 1   
    34    32    16 1   
    35    33    18 1   
    36    34     7 1   
    37    35     1 1   
    38    36     1 1   
    39    37     1 1   
@<TRIPOS>SUBSTRUCTURE
     1 S76         1 TEMP              0 ****  ****    0 ROOT
