@<TRIPOS>MOLECULE
S32
   30    32     1     0     0
SMALL
bcc


@<TRIPOS>ATOM
      1 O1           9.0980     0.7170    20.8630 o          1 S32      -0.589100
      2 C1           8.5440    -0.2000    21.3730 c          1 S32       0.762100
      3 N1           9.1810    -0.9260    22.4450 ns         1 S32      -0.453100
      4 C2          10.4660    -0.4470    22.8510 ca         1 S32       0.048600
      5 C3          10.5000     0.3870    23.9490 ca         1 S32      -0.151500
      6 C4          11.7040     0.9000    24.3650 ca         1 S32      -0.108500
      7 C5          12.8650     0.5840    23.6730 ca         1 S32      -0.144000
      8 C6          12.8230    -0.2500    22.5690 ca         1 S32      -0.108500
      9 C7          11.6120    -0.7630    22.1470 ca         1 S32      -0.151500
     10 N2           7.2370    -0.6260    20.9410 ns         1 S32      -0.460100
     11 C8           6.5590     0.0580    19.8740 cc         1 S32      -0.022000
     12 N6           5.3530     0.6830    20.1520 na         1 S32       0.002700
     13 C10          4.7260     1.3390    19.1050 cc         1 S32      -0.145600
     14 C11          5.3210     1.3050    17.8490 cc         1 S32       0.449200
     15 N3           6.4720     0.7100    17.6440 nd         1 S32      -0.638000
     16 C12          7.1030     0.0840    18.6020 cd         1 S32       0.374200
     17 H1           8.7450    -1.7250    22.8830 hn         1 S32       0.308500
     18 H3           9.5900     0.6340    24.4760 ha         1 S32       0.149000
     19 H4          11.7470     1.5480    25.2280 ha         1 S32       0.136500
     20 H5          13.8100     0.9930    23.9990 ha         1 S32       0.136000
     21 H6          13.7320    -0.4980    22.0410 ha         1 S32       0.136500
     22 H7          11.5620    -1.4030    21.2780 ha         1 S32       0.149000
     23 H2           6.7930    -1.4130    21.3920 hn         1 S32       0.311500
     24 N4           3.5850     1.9600    19.5610 nd         1 S32      -0.261600
     25 H11          4.8220     1.7820    17.0190 h4         1 S32       0.055100
     26 H12          8.0430    -0.4100    18.4020 h4         1 S32       0.065100
     27 C14          4.6060     0.9730    21.3470 cc         1 S32      -0.234100
     28 H14          4.8880     0.7670    22.3710 h4         1 S32       0.179000
     29 C13          3.5600     1.8150    20.9590 cd         1 S32       0.017600
     30 H13          2.8540     2.3810    21.5510 h4         1 S32       0.186000
@<TRIPOS>BOND
     1     1     2 2   
     2     2     3 1   
     3     2    10 1   
     4     3     4 1   
     5    10    11 1   
     6     4     5 ar  
     7     4     9 ar  
     8     5     6 ar  
     9     9     8 ar  
    10     6     7 ar  
    11     7     8 ar  
    12    11    12 1   
    13    11    16 2   
    14    12    13 1   
    15    16    15 1   
    16    13    14 1   
    17    14    15 2   
    18    17     3 1   
    19    18     5 1   
    20    19     6 1   
    21    20     7 1   
    22    21     8 1   
    23    22     9 1   
    24    23    10 1   
    25    24    13 2   
    26    25    14 1   
    27    26    16 1   
    28    27    12 1   
    29    28    27 1   
    30    29    27 2   
    31    30    29 1   
    32    24    29 1   
@<TRIPOS>SUBSTRUCTURE
     1 S32         1 TEMP              0 ****  ****    0 ROOT
