@<TRIPOS>MOLECULE
S35
   31    33     1     0     0
SMALL
bcc


@<TRIPOS>ATOM
      1 O1           9.0980     0.7170    20.8630 o          1 S35      -0.611100
      2 C1           8.5440    -0.2000    21.3730 c          1 S35       0.783100
      3 N1           9.1810    -0.9260    22.4450 ns         1 S35      -0.475100
      4 C2          10.4660    -0.4470    22.8510 ca         1 S35       0.073600
      5 C3          10.5000     0.3870    23.9490 ca         1 S35      -0.163000
      6 C4          11.7040     0.9000    24.3650 ca         1 S35      -0.105500
      7 C5          12.8650     0.5840    23.6730 ca         1 S35      -0.152000
      8 C6          12.8230    -0.2500    22.5690 ca         1 S35      -0.105500
      9 C7          11.6120    -0.7630    22.1470 ca         1 S35      -0.163000
     10 N2           7.2370    -0.6260    20.9410 ns         1 S35      -0.459100
     11 C8           6.5590     0.0580    19.8740 ca         1 S35      -0.070000
     12 C9           5.3530     0.6830    20.1520 ca         1 S35       0.271300
     13 C10          4.7260     1.3390    19.1050 ca         1 S35       0.182000
     14 C11          5.3210     1.3050    17.8490 ca         1 S35       0.356900
     15 N3           6.4720     0.7100    17.6440 nb         1 S35      -0.633000
     16 C12          7.1030     0.0840    18.6020 ca         1 S35       0.376200
     17 H1           8.7450    -1.7250    22.8830 hn         1 S35       0.317500
     18 H3           9.5900     0.6340    24.4760 ha         1 S35       0.150000
     19 H4          11.7470     1.5480    25.2280 ha         1 S35       0.134000
     20 H5          13.8100     0.9930    23.9990 ha         1 S35       0.134000
     21 H6          13.7320    -0.4980    22.0410 ha         1 S35       0.134000
     22 H7          11.5620    -1.4030    21.2780 ha         1 S35       0.150000
     23 H2           6.7930    -1.4130    21.3920 hn         1 S35       0.331500
     24 H11          4.8220     1.7820    17.0190 h4         1 S35       0.045100
     25 H12          8.0430    -0.4100    18.4020 h4         1 S35       0.068100
     26 N6           4.7920     0.6520    21.4370 nb         1 S35      -0.647000
     27 C14          3.5700     1.2950    21.6840 ca         1 S35       0.310900
     28 C15          2.9090     1.9680    20.6470 ca         1 S35       0.291900
     29 H142         3.1390     1.2720    22.6740 h4         1 S35       0.037100
     30 N5           3.4700     1.9990    19.3620 nb         1 S35      -0.602000
     31 H152         1.9690     2.4630    20.8370 h4         1 S35       0.040100
@<TRIPOS>BOND
     1     1     2 2   
     2     2     3 1   
     3     2    10 1   
     4     3     4 1   
     5    10    11 1   
     6     4     5 ar  
     7     4     9 ar  
     8     5     6 ar  
     9     9     8 ar  
    10     6     7 ar  
    11     7     8 ar  
    12    11    12 ar  
    13    11    16 ar  
    14    12    13 ar  
    15    16    15 ar  
    16    13    14 ar  
    17    14    15 ar  
    18    17     3 1   
    19    18     5 1   
    20    19     6 1   
    21    20     7 1   
    22    21     8 1   
    23    22     9 1   
    24    23    10 1   
    25    24    14 1   
    26    25    16 1   
    27    26    12 ar  
    28    27    26 ar  
    29    28    27 ar  
    30    29    27 1   
    31    30    28 ar  
    32    31    28 1   
    33    30    13 ar  
@<TRIPOS>SUBSTRUCTURE
     1 S35         1 TEMP              0 ****  ****    0 ROOT
