@<TRIPOS>MOLECULE
S27
   35    36     1     0     0
SMALL
bcc


@<TRIPOS>ATOM
      1 O1           9.0980     0.7170    20.8630 o          1 S27      -0.600100
      2 C1           8.5440    -0.2000    21.3730 c          1 S27       0.768100
      3 N1           9.1810    -0.9260    22.4450 ns         1 S27      -0.461100
      4 C2          10.4660    -0.4470    22.8510 ca         1 S27       0.057600
      5 C3          10.5000     0.3870    23.9490 ca         1 S27      -0.155000
      6 C4          11.7040     0.9000    24.3650 ca         1 S27      -0.108500
      7 C5          12.8650     0.5840    23.6730 ca         1 S27      -0.149000
      8 C6          12.8230    -0.2500    22.5690 ca         1 S27      -0.108500
      9 C7          11.6120    -0.7630    22.1470 ca         1 S27      -0.155000
     10 N2           7.2370    -0.6260    20.9410 ns         1 S27      -0.459100
     11 C8           6.5590     0.0580    19.8740 ca         1 S27      -0.019700
     12 C9           5.3530     0.6830    20.1520 ca         1 S27      -0.214000
     13 C10          4.7260     1.3390    19.1050 ca         1 S27       0.069300
     14 C11          5.3210     1.3050    17.8490 ca         1 S27       0.321200
     15 N3           6.4720     0.7100    17.6440 nb         1 S27      -0.621000
     16 C12          7.1030     0.0840    18.6020 ca         1 S27       0.350200
     17 H1           8.7450    -1.7250    22.8830 hn         1 S27       0.305500
     18 H3           9.5900     0.6340    24.4760 ha         1 S27       0.148500
     19 H4          11.7470     1.5480    25.2280 ha         1 S27       0.134000
     20 H5          13.8100     0.9930    23.9990 ha         1 S27       0.134000
     21 H6          13.7320    -0.4980    22.0410 ha         1 S27       0.134000
     22 H7          11.5620    -1.4030    21.2780 ha         1 S27       0.148500
     23 H2           6.7930    -1.4130    21.3920 hn         1 S27       0.306500
     24 H9           4.9210     0.6590    21.1420 ha         1 S27       0.134000
     25 N4           3.6060     2.1390    19.5080 nh         1 S27      -0.648000
     26 H11          4.8220     1.7820    17.0190 h4         1 S27       0.024100
     27 H12          8.0430    -0.4100    18.4020 h4         1 S27       0.059100
     28 C13          3.5260     2.6450    20.9060 c3         1 S27       0.183100
     29 C14          2.8400     3.0990    18.6680 c3         1 S27       0.183100
     30 H131         2.9640     3.5910    21.0420 h1         1 S27       0.039700
     31 H132         2.9940     1.9120    21.5170 h1         1 S27       0.039700
     32 H133         4.5220     2.8360    21.3470 h1         1 S27       0.039700
     33 H141         1.7930     2.7300    18.6020 h1         1 S27       0.039700
     34 H142         3.2810     3.2950    17.6960 h1         1 S27       0.039700
     35 H143         2.7660     4.0930    19.1410 h1         1 S27       0.039700
@<TRIPOS>BOND
     1     1     2 2   
     2     2     3 1   
     3     2    10 1   
     4     3     4 1   
     5    10    11 1   
     6     4     5 ar  
     7     4     9 ar  
     8     5     6 ar  
     9     9     8 ar  
    10     6     7 ar  
    11     7     8 ar  
    12    11    12 ar  
    13    11    16 ar  
    14    12    13 ar  
    15    16    15 ar  
    16    13    14 ar  
    17    14    15 ar  
    18    17     3 1   
    19    18     5 1   
    20    19     6 1   
    21    20     7 1   
    22    21     8 1   
    23    22     9 1   
    24    23    10 1   
    25    24    12 1   
    26    25    13 1   
    27    26    14 1   
    28    27    16 1   
    29    28    25 1   
    30    29    25 1   
    31    30    28 1   
    32    31    28 1   
    33    32    28 1   
    34    33    29 1   
    35    34    29 1   
    36    35    29 1   
@<TRIPOS>SUBSTRUCTURE
     1 S27         1 TEMP              0 ****  ****    0 ROOT
