@<TRIPOS>MOLECULE
Cpptraj Generated mol2 file.
   38    40     1     0     0
SMALL
USER_CHARGES


@<TRIPOS>ATOM
      1 C1         13.7040   -1.5135   23.4204 c3         1 S72      0.083100
      2 N1         12.2695   -1.0561   23.6244 nx         1 S72     -0.680400
      3 O1          8.9459    1.4020   21.1659 o          1 S72     -0.564100
      4 C2         11.3126   -1.9739   22.8565 c3         1 S72      0.081800
      5 N2          9.7330   -0.1296   22.6454 n          1 S72     -0.500800
      6 C3          9.8705   -1.5051   23.1363 c3         1 S72      0.074000
      7 N3          6.2221    0.2276   17.9516 na         1 S72     -0.270100
      8 C4         10.6257    0.8179   23.3274 c3         1 S72      0.074000
      9 N4          4.2241    1.5020   18.6603 nb         1 S72     -0.647000
     10 C5         12.0977    0.3871   23.1432 c3         1 S72      0.081800
     11 C6          8.8990    0.2460   21.5977 c          1 S72      0.673100
     12 C7          7.9609   -0.8003   21.0435 c3         1 S72     -0.060200
     13 C8          7.0987   -0.2469   19.9924 cc         1 S72     -0.190400
     14 C9          7.2711   -0.4023   18.6306 cd         1 S72     -0.058100
     15 C10         5.3804    0.7992   18.8999 ca         1 S72      0.422800
     16 C11         3.5982    1.9100   19.7757 ca         1 S72      0.419200
     17 C12         4.0424    1.6610   21.0994 ca         1 S72     -0.257300
     18 C13         5.2046    0.9575   21.3205 ca         1 S72     -0.078000
     19 C14         5.9052    0.5132   20.1968 ca         1 S72     -0.204100
     20 HN1        12.0250   -1.1205   24.6554 hn         1 S72      0.447800
     21 H22        11.4657   -3.0409   23.1709 hx         1 S72      0.108200
     22 H23        11.5449   -1.9673   21.7613 hx         1 S72      0.108200
     23 H32         9.1710   -2.2397   22.6716 h1         1 S72      0.099200
     24 H33         9.6080   -1.5541   24.2280 h1         1 S72      0.099200
     25 H42        10.5166    1.8638   22.9466 h1         1 S72      0.099200
     26 H43        10.3452    0.8800   24.4105 h1         1 S72      0.099200
     27 H52        12.7829    1.0760   23.7009 hx         1 S72      0.108200
     28 H53        12.4186    0.4701   22.0755 hx         1 S72      0.108200
     29 H72         8.5658   -1.6427   20.6365 hc         1 S72      0.089200
     30 H73         7.3223   -1.2254   21.8526 hc         1 S72      0.089200
     31 H9          8.0461   -0.9415   18.0807 h4         1 S72      0.185000
     32 H11         2.6750    2.4815   19.5928 h4         1 S72      0.038100
     33 H12         3.4442    2.0460   21.9362 ha         1 S72      0.152000
     34 H13         5.5742    0.7397   22.3344 ha         1 S72      0.129000
     35 HN3         6.1285    0.2811   16.9409 hn         1 S72      0.324700
     36 H14        13.8600   -2.5421   23.8185 hx         1 S72      0.105367
     37 H15        13.9821   -1.5190   22.3478 hx         1 S72      0.105367
     38 H16        14.4131   -0.8507   23.9578 hx         1 S72      0.105367
@<TRIPOS>BOND
    1    18    19 1
    2    17    18 1
    3    16    17 1
    4    15    19 1
    5    13    14 1
    6    13    19 1
    7    12    13 1
    8    11    12 1
    9     9    15 1
   10     9    16 1
   11     8    10 1
   12     7    14 1
   13     7    15 1
   14     5    11 1
   15     5     6 1
   16     5     8 1
   17     4     6 1
   18     3    11 1
   19     2     4 1
   20     2    10 1
   21     1     2 1
   22    18    34 1
   23    17    33 1
   24    16    32 1
   25    14    31 1
   26    12    29 1
   27    12    30 1
   28    10    27 1
   29    10    28 1
   30     8    25 1
   31     8    26 1
   32     7    35 1
   33     6    23 1
   34     6    24 1
   35     4    21 1
   36     4    22 1
   37     2    20 1
   38     1    36 1
   39     1    37 1
   40     1    38 1
@<TRIPOS>SUBSTRUCTURE
      1 S72               1 ****               0 ****  **** 
