@<TRIPOS>MOLECULE
Cpptraj Generated mol2 file.
   37    39     1     0     0
SMALL
USER_CHARGES


@<TRIPOS>ATOM
      1 C1         13.6759   -1.5041   23.4231 c3         1 S77      0.083100
      2 N1         12.2398   -1.0514   23.6183 nx         1 S77     -0.680400
      3 O1          8.8996    1.3649   21.1091 o          1 S77     -0.563100
      4 C2         11.2936   -1.9825   22.8556 c3         1 S77      0.079800
      5 N2          9.7171   -0.1469   22.5974 n          1 S77     -0.496800
      6 C3          9.8466   -1.5157   23.1183 c3         1 S77      0.075500
      7 N3          6.1827    0.1732   17.8775 na         1 S77     -0.286100
      8 C4         10.5909    0.8132   23.2844 c3         1 S77      0.075500
      9 N4          4.2309    1.5162   18.6150 nb         1 S77     -0.605000
     10 C5         12.0684    0.3864   23.1299 c3         1 S77      0.079800
     11 C6          8.8632    0.2164   21.5659 c          1 S77      0.675100
     12 C7          7.9302   -0.8426   21.0265 c3         1 S77     -0.052200
     13 C8          7.0686   -0.2957   19.9679 cc         1 S77     -0.298000
     14 C9          7.2091   -0.4642   18.5976 cd         1 S77      0.225400
     15 C10         5.3721    0.7903   18.8284 ca         1 S77      0.329500
     16 C11         3.6514    1.9427   19.7417 ca         1 S77      0.307900
     17 C12         4.1623    1.6634   21.0538 ca         1 S77      0.275900
     18 N6          5.2767    0.9509   21.2635 nb         1 S77     -0.639000
     19 C14         5.8969    0.5111   20.1367 ca         1 S77      0.318800
     20 HN1        11.9913   -1.1098   24.6491 hn         1 S77      0.446800
     21 H22        11.4441   -3.0449   23.1836 hx         1 S77      0.107950
     22 H23        11.5320   -1.9803   21.7624 hx         1 S77      0.107950
     23 H32         9.1515   -2.2582   22.6566 h1         1 S77      0.101450
     24 H33         9.5743   -1.5462   24.2058 h1         1 S77      0.101450
     25 H42        10.4817    1.8535   22.8908 h1         1 S77      0.101450
     26 H43        10.2917    0.8940   24.3592 h1         1 S77      0.101450
     27 H52        12.7361    1.0855   23.6948 hx         1 S77      0.107950
     28 H53        12.4051    0.4659   22.0708 hx         1 S77      0.107950
     29 H72         8.5174   -1.6972   20.6277 hc         1 S77      0.090200
     30 H73         7.2703   -1.2389   21.8452 hc         1 S77      0.090200
     31 F1          8.1262   -1.1450   17.9494 f          1 S77     -0.108500
     32 H11         2.7306    2.5394   19.6157 h4         1 S77      0.050100
     33 HN3         6.1062    0.2234   16.8625 hn         1 S77      0.337700
     34 H14        13.8386   -2.5277   23.8300 hx         1 S77      0.105033
     35 H15        13.9585   -1.5201   22.3527 hx         1 S77      0.105033
     36 H16        14.3845   -0.8354   23.9522 hx         1 S77      0.105033
     37 H12         3.6319    2.0282   21.9596 h4         1 S77      0.036100
@<TRIPOS>BOND
    1    18    19 1
    2    17    18 1
    3    16    17 1
    4    15    19 1
    5    14    31 1
    6    13    14 1
    7    13    19 1
    8    12    13 1
    9    11    12 1
   10     9    15 1
   11     9    16 1
   12     8    10 1
   13     7    14 1
   14     7    15 1
   15     5    11 1
   16     5     6 1
   17     5     8 1
   18     4     6 1
   19     3    11 1
   20     2     4 1
   21     2    10 1
   22     1     2 1
   23    17    37 1
   24    16    32 1
   25    12    29 1
   26    12    30 1
   27    10    27 1
   28    10    28 1
   29     8    25 1
   30     8    26 1
   31     7    33 1
   32     6    23 1
   33     6    24 1
   34     4    21 1
   35     4    22 1
   36     2    20 1
   37     1    34 1
   38     1    35 1
   39     1    36 1
@<TRIPOS>SUBSTRUCTURE
      1 S77               1 ****               0 ****  **** 
