@<TRIPOS>MOLECULE
Cpptraj Generated mol2 file.
   37    39     1     0     0
SMALL
USER_CHARGES


@<TRIPOS>ATOM
      1 C1         13.6886   -1.4261   23.5224 c3         1 S90      0.083100
      2 N1         12.2379   -1.0092   23.6710 nx         1 S90     -0.679400
      3 O1          8.9576    1.3401   21.0573 o          1 S90     -0.535100
      4 C2         11.3317   -1.9613   22.8826 c3         1 S90      0.075300
      5 N2          9.7177   -0.1574   22.5934 n          1 S90     -0.499800
      6 C3          9.8683   -1.5301   23.1039 c3         1 S90      0.069500
      7 N3          6.2342    0.1681   17.8422 na         1 S90     -0.263100
      8 C4         10.5584    0.8177   23.2932 c3         1 S90      0.069500
      9 N4          4.3082    1.5412   18.5780 nb         1 S90     -0.675000
     10 C5         12.0446    0.4233   23.1682 c3         1 S90      0.075300
     11 C6          8.9170    0.1901   21.5141 c          1 S90      0.661100
     12 C7          8.0143   -0.8791   20.9346 c3         1 S90     -0.053200
     13 C8          7.1353   -0.3075   19.8992 cc         1 S90     -0.128400
     14 C9          7.2391   -0.5121   18.5422 cd         1 S90      0.065300
     15 C10         5.4527    0.8064   18.7952 ca         1 S90      0.458800
     16 C11         3.7298    1.9548   19.7232 ca         1 S90      0.651900
     17 N5          4.1597    1.7234   21.0185 nb         1 S90     -0.697000
     18 C13         5.2822    1.0148   21.1989 ca         1 S90      0.472200
     19 C14         5.9903    0.5201   20.0936 ca         1 S90     -0.312400
     20 HN1        11.9567   -1.0664   24.6889 hn         1 S90      0.448800
     21 H22        11.5000   -3.0218   23.2163 hx         1 S90      0.110200
     22 H23        11.6040   -1.9594   21.7950 hx         1 S90      0.110200
     23 H32         9.2069   -2.2857   22.6158 h1         1 S90      0.097700
     24 H33         9.5610   -1.5668   24.1827 h1         1 S90      0.097700
     25 H42        10.4369    1.8576   22.9027 h1         1 S90      0.097700
     26 H43        10.2340    0.8907   24.3648 h1         1 S90      0.097700
     27 H52        12.6903    1.1415   23.7353 hx         1 S90      0.110200
     28 H53        12.3983    0.5006   22.1117 hx         1 S90      0.110200
     29 H72         8.6395   -1.6833   20.4753 hc         1 S90      0.079700
     30 H73         7.3772   -1.3517   21.7186 hc         1 S90      0.079700
     31 Cl1         8.3036   -1.5011   17.7543 cl         1 S90     -0.022400
     32 H11         2.7912    2.5385   19.6377 h5         1 S90      0.069100
     33 H13         5.5866    0.8253   22.2519 h4         1 S90      0.022100
     34 HN3         6.1656    0.2125   16.8245 hn         1 S90      0.332700
     35 H14        13.8634   -2.4471   23.9317 hx         1 S90      0.106367
     36 H15        14.0076   -1.4338   22.4619 hx         1 S90      0.106367
     37 H16        14.3647   -0.7443   24.0754 hx         1 S90      0.106367
@<TRIPOS>BOND
    1    18    19 1
    2    17    18 1
    3    16    17 1
    4    15    19 1
    5    14    31 1
    6    13    14 1
    7    13    19 1
    8    12    13 1
    9    11    12 1
   10     9    15 1
   11     9    16 1
   12     8    10 1
   13     7    14 1
   14     7    15 1
   15     5    11 1
   16     5     6 1
   17     5     8 1
   18     4     6 1
   19     3    11 1
   20     2     4 1
   21     2    10 1
   22     1     2 1
   23    18    33 1
   24    16    32 1
   25    12    29 1
   26    12    30 1
   27    10    27 1
   28    10    28 1
   29     8    25 1
   30     8    26 1
   31     7    34 1
   32     6    23 1
   33     6    24 1
   34     4    21 1
   35     4    22 1
   36     2    20 1
   37     1    35 1
   38     1    36 1
   39     1    37 1
@<TRIPOS>SUBSTRUCTURE
      1 S90               1 ****               0 ****  **** 
