@<TRIPOS>MOLECULE
Cpptraj Generated mol2 file.
   38    40     1     0     0
SMALL
USER_CHARGES


@<TRIPOS>ATOM
      1 C1         13.6893   -1.4954   23.4322 c3         1 S75      0.083100
      2 N1         12.2558   -1.0510   23.6290 nx         1 S75     -0.679400
      3 O1          8.9353    1.3522   21.1118 o          1 S75     -0.535100
      4 C2         11.3127   -1.9791   22.8632 c3         1 S75      0.074300
      5 N2          9.7203   -0.1523   22.6251 n          1 S75     -0.496800
      6 C3          9.8625   -1.5265   23.1330 c3         1 S75      0.068500
      7 N3          6.1943    0.1492   17.8882 na         1 S75     -0.292100
      8 C4         10.5963    0.8096   23.3045 c3         1 S75      0.068500
      9 N4          4.2374    1.4601   18.6152 nb         1 S75     -0.649000
     10 C5         12.0736    0.3887   23.1427 c3         1 S75      0.074300
     11 C6          8.8959    0.2064   21.5675 c          1 S75      0.657100
     12 C7          7.9728   -0.8599   21.0128 c3         1 S75     -0.044200
     13 C8          7.1044   -0.3150   19.9595 cc         1 S75     -0.182400
     14 C9          7.2399   -0.4748   18.5919 cd         1 S75      0.204400
     15 C10         5.3809    0.7475   18.8558 ca         1 S75      0.438800
     16 C11         3.6323    1.8958   19.7340 ca         1 S75      0.422200
     17 C12         4.0816    1.6618   21.0565 ca         1 S75     -0.252300
     18 C13         5.2384    0.9402   21.2727 ca         1 S75     -0.061000
     19 C14         5.9197    0.4670   20.1486 ca         1 S75     -0.173100
     20 HN1        12.0063   -1.1109   24.6567 hn         1 S75      0.447800
     21 H22        11.4681   -3.0447   23.1858 hx         1 S75      0.109950
     22 H23        11.5460   -1.9746   21.7682 hx         1 S75      0.109950
     23 H32         9.1682   -2.2672   22.6708 h1         1 S75      0.097700
     24 H33         9.5924   -1.5583   24.2226 h1         1 S75      0.097700
     25 H42        10.4816    1.8496   22.9157 h1         1 S75      0.097700
     26 H43        10.3017    0.8841   24.3824 h1         1 S75      0.097700
     27 H52        12.7451    1.0893   23.7049 hx         1 S75      0.109950
     28 H53        12.4063    0.4706   22.0804 hx         1 S75      0.109950
     29 H72         8.5895   -1.6933   20.5940 hc         1 S75      0.077200
     30 H73         7.3270   -1.2902   21.8193 hc         1 S75      0.077200
     31 F1          8.1629   -1.1327   17.9271 f          1 S75     -0.132500
     32 H11         2.7134    2.4806   19.5500 h4         1 S75      0.037100
     33 H12         3.4982    2.0638   21.8938 ha         1 S75      0.152000
     34 H13         5.6147    0.7322   22.2869 ha         1 S75      0.134000
     35 HN3         6.1117    0.2122   16.8782 hn         1 S75      0.330700
     36 H14        13.8571   -2.5213   23.8369 hx         1 S75      0.106033
     37 H15        13.9722   -1.5104   22.3626 hx         1 S75      0.106033
     38 H16        14.3965   -0.8267   23.9620 hx         1 S75      0.106033
@<TRIPOS>BOND
    1    18    19 1
    2    17    18 1
    3    16    17 1
    4    15    19 1
    5    14    31 1
    6    13    14 1
    7    13    19 1
    8    12    13 1
    9    11    12 1
   10     9    15 1
   11     9    16 1
   12     8    10 1
   13     7    14 1
   14     7    15 1
   15     5    11 1
   16     5     6 1
   17     5     8 1
   18     4     6 1
   19     3    11 1
   20     2     4 1
   21     2    10 1
   22     1     2 1
   23    18    34 1
   24    17    33 1
   25    16    32 1
   26    12    29 1
   27    12    30 1
   28    10    27 1
   29    10    28 1
   30     8    25 1
   31     8    26 1
   32     7    35 1
   33     6    23 1
   34     6    24 1
   35     4    21 1
   36     4    22 1
   37     2    20 1
   38     1    36 1
   39     1    37 1
   40     1    38 1
@<TRIPOS>SUBSTRUCTURE
      1 S75               1 ****               0 ****  **** 
