@<TRIPOS>MOLECULE
Cpptraj Generated mol2 file.
   37    39     1     0     0
SMALL
USER_CHARGES


@<TRIPOS>ATOM
      1 C1         13.6683   -1.4597   23.4778 c3         1 S91      0.083100
      2 N1         12.2146   -1.0350   23.6366 nx         1 S91     -0.680400
      3 O1          8.8970    1.3452   21.0586 o          1 S91     -0.564100
      4 C2         11.3075   -1.9828   22.8500 c3         1 S91      0.079800
      5 N2          9.7060   -0.1712   22.5614 n          1 S91     -0.496800
      6 C3          9.8552   -1.5447   23.0761 c3         1 S91      0.074500
      7 N3          6.1872    0.1178   17.8340 na         1 S91     -0.258100
      8 C4         10.5504    0.8024   23.2653 c3         1 S91      0.074500
      9 N4          4.2735    1.5290   18.5601 nb         1 S91     -0.607000
     10 C5         12.0338    0.4031   23.1440 c3         1 S91      0.079800
     11 C6          8.8704    0.1949   21.5134 c          1 S91      0.675100
     12 C7          7.9532   -0.8765   20.9473 c3         1 S91     -0.057200
     13 C8          7.0816   -0.3168   19.8989 cc         1 S91     -0.266000
     14 C9          7.1880   -0.5477   18.5405 cd         1 S91      0.072300
     15 C10         5.4101    0.7876   18.7721 ca         1 S91      0.325500
     16 C11         3.7112    1.9789   19.6878 ca         1 S91      0.309900
     17 C12         4.2382    1.7161   20.9996 ca         1 S91      0.272900
     18 N6          5.3418    1.0031   21.2109 nb         1 S91     -0.636000
     19 C14         5.9465    0.5282   20.0786 ca         1 S91      0.306800
     20 HN1        11.9471   -1.0991   24.6600 hn         1 S91      0.446800
     21 H22        11.4741   -3.0364   23.1748 hx         1 S91      0.107950
     22 H23        11.5763   -1.9742   21.7665 hx         1 S91      0.107950
     23 H32         9.1860   -2.2913   22.5904 h1         1 S91      0.101450
     24 H33         9.5516   -1.5850   24.1531 h1         1 S91      0.101450
     25 H42        10.4316    1.8439   22.8713 h1         1 S91      0.101450
     26 H43        10.2274    0.8711   24.3342 h1         1 S91      0.101450
     27 H52        12.6815    1.1094   23.7211 hx         1 S91      0.107950
     28 H53        12.3962    0.4913   22.0922 hx         1 S91      0.107950
     29 H72         8.5595   -1.7171   20.5121 hc         1 S91      0.091700
     30 H73         7.3119   -1.3235   21.7517 hc         1 S91      0.091700
     31 Cl1         8.2516   -1.5520   17.7834 cl         1 S91      0.008600
     32 H11         2.7916    2.5754   19.5680 h4         1 S91      0.049100
     33 HN3         6.1181    0.1565   16.8209 hn         1 S91      0.334700
     34 H14        13.8442   -2.4849   23.8860 hx         1 S91      0.105033
     35 H15        13.9834   -1.4674   22.4133 hx         1 S91      0.105033
     36 H16        14.3569   -0.7767   24.0241 hx         1 S91      0.105033
     37 H12         3.7239    2.0942   21.8994 h4         1 S91      0.036100
@<TRIPOS>BOND
    1    18    19 1
    2    17    18 1
    3    16    17 1
    4    15    19 1
    5    14    31 1
    6    13    14 1
    7    13    19 1
    8    12    13 1
    9    11    12 1
   10     9    15 1
   11     9    16 1
   12     8    10 1
   13     7    14 1
   14     7    15 1
   15     5    11 1
   16     5     6 1
   17     5     8 1
   18     4     6 1
   19     3    11 1
   20     2     4 1
   21     2    10 1
   22     1     2 1
   23    17    37 1
   24    16    32 1
   25    12    29 1
   26    12    30 1
   27    10    27 1
   28    10    28 1
   29     8    25 1
   30     8    26 1
   31     7    33 1
   32     6    23 1
   33     6    24 1
   34     4    21 1
   35     4    22 1
   36     2    20 1
   37     1    34 1
   38     1    35 1
   39     1    36 1
@<TRIPOS>SUBSTRUCTURE
      1 S91               1 ****               0 ****  **** 
