@<TRIPOS>MOLECULE
Cpptraj Generated mol2 file.
   37    39     1     0     0
SMALL
USER_CHARGES


@<TRIPOS>ATOM
      1 C1         13.6704   -1.5132   23.4438 c3         1 S84      0.085100
      2 N1         12.2203   -1.0962   23.5962 nx         1 S84     -0.674400
      3 O1          8.8629    1.3971   21.1143 o          1 S84     -0.626100
      4 C2         11.3314   -2.0200   22.7616 c3         1 S84      0.064300
      5 N2          9.7291   -0.2063   22.5095 n          1 S84     -0.401800
      6 C3          9.8622   -1.5979   22.9603 c3         1 S84      0.028500
      7 N3          6.1506    0.0714   17.8835 na         1 S84     -0.291100
      8 C4         10.5510    0.7458   23.2711 c3         1 S84      0.028500
      9 N4          4.2189    1.3985   18.6162 nb         1 S84     -0.648000
     10 C5         12.0384    0.3549   23.1429 c3         1 S84      0.064300
     11 C6          8.8779    0.2222   21.4866 c          1 S84      0.714100
     12 N7          8.0378   -0.7372   20.9117 ns         1 S84     -0.386100
     13 C8          7.1292   -0.3029   19.9346 cc         1 S84     -0.072600
     14 C9          7.2430   -0.4947   18.5598 cd         1 S84      0.205400
     15 C10         5.3680    0.6944   18.8592 ca         1 S84      0.446800
     16 C11         3.6287    1.8702   19.7261 ca         1 S84      0.426200
     17 C12         4.1107    1.6764   21.0446 ca         1 S84     -0.250300
     18 C13         5.2763    0.9719   21.2730 ca         1 S84     -0.059000
     19 C14         5.9395    0.4657   20.1478 ca         1 S84     -0.193100
     20 HN1        11.9283   -1.1936   24.6151 hn         1 S84      0.441800
     21 H22        11.4805   -3.0896   23.0679 hx         1 S84      0.121450
     22 H23        11.6189   -1.9819   21.6834 hx         1 S84      0.121450
     23 H32         9.2081   -2.3116   22.4040 h1         1 S84      0.100700
     24 H33         9.5217   -1.6874   24.0270 h1         1 S84      0.100700
     25 H42        10.4296    1.8019   22.9265 h1         1 S84      0.100700
     26 H43        10.2139    0.7584   24.3403 h1         1 S84      0.100700
     27 H52        12.6828    1.0453   23.7480 hx         1 S84      0.121450
     28 H53        12.4053    0.4658   22.0974 hx         1 S84      0.121450
     29 F1          8.1552   -1.1627   17.8902 f          1 S84     -0.122500
     30 H11         2.7015    2.4364   19.5422 h4         1 S84      0.040100
     31 H12         3.5351    2.1017   21.8856 ha         1 S84      0.156000
     32 H13         5.6666    0.8034   22.2802 ha         1 S84      0.138000
     33 HN3         6.0244    0.0964   16.8764 hn         1 S84      0.333700
     34 H14        13.8440   -2.5426   23.8337 hx         1 S84      0.106033
     35 H15        13.9895   -1.4984   22.3842 hx         1 S84      0.106033
     36 H16        14.3460   -0.8421   24.0114 hx         1 S84      0.106033
     37 HN7         8.1373   -1.7384   21.0427 hn         1 S84      0.346500
@<TRIPOS>BOND
    1    18    19 1
    2    17    18 1
    3    16    17 1
    4    15    19 1
    5    14    29 1
    6    13    14 1
    7    13    19 1
    8    12    13 1
    9    11    12 1
   10     9    15 1
   11     9    16 1
   12     8    10 1
   13     7    14 1
   14     7    15 1
   15     5    11 1
   16     5     6 1
   17     5     8 1
   18     4     6 1
   19     3    11 1
   20     2     4 1
   21     2    10 1
   22     1     2 1
   23    18    32 1
   24    17    31 1
   25    16    30 1
   26    12    37 1
   27    10    27 1
   28    10    28 1
   29     8    25 1
   30     8    26 1
   31     7    33 1
   32     6    23 1
   33     6    24 1
   34     4    21 1
   35     4    22 1
   36     2    20 1
   37     1    34 1
   38     1    35 1
   39     1    36 1
@<TRIPOS>SUBSTRUCTURE
      1 S84               1 ****               0 ****  **** 
