@<TRIPOS>MOLECULE
Cpptraj Generated mol2 file.
   36    38     1     0     0
SMALL
USER_CHARGES


@<TRIPOS>ATOM
      1 C1         13.6632   -1.5075   23.4573 c3         1 S83      0.085100
      2 N1         12.2169   -1.0761   23.6078 nx         1 S83     -0.674400
      3 O1          8.9061    1.4807   21.1420 o          1 S83     -0.663100
      4 C2         11.3086   -1.9869   22.7773 c3         1 S83      0.064800
      5 N2          9.7358   -0.1461   22.5384 n          1 S83     -0.396800
      6 C3          9.8482   -1.5407   22.9807 c3         1 S83      0.029000
      7 N3          6.1821    0.1382   17.9082 na         1 S83     -0.260100
      8 C4         10.5687    0.7889   23.3044 c3         1 S83      0.029000
      9 N4          4.2041    1.4425   18.6548 nb         1 S83     -0.616000
     10 C5         12.0522    0.3767   23.1576 c3         1 S83      0.064800
     11 C6          8.8804    0.2973   21.5263 c          1 S83      0.710100
     12 N7          8.0498   -0.6331   20.9087 ns         1 S83     -0.371100
     13 C8          7.1491   -0.2063   19.9367 cc         1 S83     -0.149200
     14 C9          7.2696   -0.4226   18.5688 cd         1 S83     -0.085100
     15 C10         5.3830    0.7688   18.8561 ca         1 S83      0.327500
     16 C11         3.6419    1.8888   19.7819 ca         1 S83      0.315900
     17 C12         4.2109    1.6732   21.0905 ca         1 S83      0.275900
     18 N6          5.3596    1.0237   21.2881 nb         1 S83     -0.601000
     19 C14         5.9610    0.5631   20.1515 ca         1 S83      0.278800
     20 HN1        11.9293   -1.1714   24.6233 hn         1 S83      0.441800
     21 H22        11.4545   -3.0583   23.0753 hx         1 S83      0.120200
     22 H23        11.5991   -1.9561   21.6990 hx         1 S83      0.120200
     23 H32         9.1868   -2.2489   22.4275 h1         1 S83      0.101200
     24 H33         9.5136   -1.6433   24.0441 h1         1 S83      0.101200
     25 H42        10.4638    1.8487   22.9658 h1         1 S83      0.101200
     26 H43        10.2392    0.8060   24.3771 h1         1 S83      0.101200
     27 H52        12.7088    1.0611   23.7549 hx         1 S83      0.120200
     28 H53        12.4051    0.4859   22.1028 hx         1 S83      0.120200
     29 H9          8.0315   -0.9903   18.0292 h4         1 S83      0.202000
     30 H11         2.6873    2.4470   19.6706 h4         1 S83      0.048100
     31 HN3         6.0513    0.1362   16.8998 hn         1 S83      0.326700
     32 H14        13.8269   -2.5373   23.8465 hx         1 S83      0.105700
     33 H15        13.9870   -1.4960   22.3995 hx         1 S83      0.105700
     34 H16        14.3469   -0.8467   24.0271 hx         1 S83      0.105700
     35 H12         3.6889    2.0428   21.9986 h4         1 S83      0.045100
     36 HN7         8.0483   -1.6193   21.1568 hn         1 S83      0.367500
@<TRIPOS>BOND
    1    18    19 1
    2    17    18 1
    3    16    17 1
    4    15    19 1
    5    13    14 1
    6    13    19 1
    7    12    13 1
    8    11    12 1
    9     9    15 1
   10     9    16 1
   11     8    10 1
   12     7    14 1
   13     7    15 1
   14     5    11 1
   15     5     6 1
   16     5     8 1
   17     4     6 1
   18     3    11 1
   19     2     4 1
   20     2    10 1
   21     1     2 1
   22    17    35 1
   23    16    30 1
   24    14    29 1
   25    12    36 1
   26    10    27 1
   27    10    28 1
   28     8    25 1
   29     8    26 1
   30     7    31 1
   31     6    23 1
   32     6    24 1
   33     4    21 1
   34     4    22 1
   35     2    20 1
   36     1    32 1
   37     1    33 1
   38     1    34 1
@<TRIPOS>SUBSTRUCTURE
      1 S83               1 ****               0 ****  **** 
