@<TRIPOS>MOLECULE
Cpptraj Generated mol2 file.
   36    38     1     0     0
SMALL
USER_CHARGES


@<TRIPOS>ATOM
      1 C1         13.6092   -1.6106   23.3153 c3         1 S88      0.085100
      2 N1         12.1578   -1.2126   23.5011 nx         1 S88     -0.674400
      3 O1          8.7842    1.3659   21.1294 o          1 S88     -0.624100
      4 C2         11.2764   -2.0974   22.6169 c3         1 S88      0.064300
      5 N2          9.6597   -0.2900   22.4823 n          1 S88     -0.403800
      6 C3          9.7999   -1.7058   22.8517 c3         1 S88      0.028500
      7 N3          6.0600   -0.1184   17.8235 na         1 S88     -0.256100
      8 C4         10.4732    0.6318   23.2840 c3         1 S88      0.028500
      9 N4          4.2278    1.4338   18.5066 nb         1 S88     -0.609000
     10 C5         11.9559    0.2576   23.1407 c3         1 S88      0.064300
     11 C6          8.7971    0.1713   21.4698 c          1 S88      0.724100
     12 N7          7.9787   -0.7743   20.8373 ns         1 S88     -0.382100
     13 C8          7.0755   -0.3420   19.8605 cc         1 S88     -0.159200
     14 C9          7.1047   -0.7102   18.5186 cd         1 S88      0.084300
     15 C10         5.3588    0.6748   18.7256 ca         1 S88      0.330500
     16 C11         3.7331    1.9997   19.6022 ca         1 S88      0.312900
     17 C12         4.3281    1.8544   20.9145 ca         1 S88      0.279900
     18 N6          5.4302    1.1476   21.1330 nb         1 S88     -0.610000
     19 C14         5.9581    0.5453   20.0232 ca         1 S88      0.293800
     20 HN1        11.8730   -1.3800   24.5126 hn         1 S88      0.440800
     21 H22        11.4407   -3.1878   22.8525 hx         1 S88      0.120200
     22 H23        11.5508   -1.9949   21.5334 hx         1 S88      0.120200
     23 H32         9.1500   -2.4070   22.2609 h1         1 S88      0.101700
     24 H33         9.4761   -1.8616   23.9193 h1         1 S88      0.101700
     25 H42        10.3397    1.6910   22.9850 h1         1 S88      0.101700
     26 H43        10.1289    0.5966   24.3438 h1         1 S88      0.101700
     27 H52        12.5798    0.9060   23.7943 hx         1 S88      0.120200
     28 H53        12.3290    0.4406   22.1143 hx         1 S88      0.120200
     29 Cl1         8.1423   -1.7727   17.7939 cl         1 S88      0.000600
     30 H11         2.8160    2.5972   19.4722 h4         1 S88      0.050100
     31 HN3         5.9153   -0.1865   16.8081 hn         1 S88      0.335700
     32 H14        13.7978   -2.6569   23.6593 hx         1 S88      0.105367
     33 H15        13.9220   -1.5462   22.2543 hx         1 S88      0.105367
     34 H16        14.2859   -0.9591   23.9070 hx         1 S88      0.105367
     35 H12         3.8616    2.3345   21.7826 h4         1 S88      0.043100
     36 HN7         8.0462   -1.7892   21.0042 hn         1 S88      0.347500
@<TRIPOS>BOND
    1    18    19 1
    2    17    18 1
    3    16    17 1
    4    15    19 1
    5    14    29 1
    6    13    14 1
    7    13    19 1
    8    12    13 1
    9    11    12 1
   10     9    15 1
   11     9    16 1
   12     8    10 1
   13     7    14 1
   14     7    15 1
   15     5    11 1
   16     5     6 1
   17     5     8 1
   18     4     6 1
   19     3    11 1
   20     2     4 1
   21     2    10 1
   22     1     2 1
   23    17    35 1
   24    16    30 1
   25    12    36 1
   26    10    27 1
   27    10    28 1
   28     8    25 1
   29     8    26 1
   30     7    31 1
   31     6    23 1
   32     6    24 1
   33     4    21 1
   34     4    22 1
   35     2    20 1
   36     1    32 1
   37     1    33 1
   38     1    34 1
@<TRIPOS>SUBSTRUCTURE
      1 S88               1 ****               0 ****  **** 
