@<TRIPOS>MOLECULE
Cpptraj Generated mol2 file.
   36    38     1     0     0
SMALL
USER_CHARGES


@<TRIPOS>ATOM
      1 C1         13.6422   -1.5929   23.3665 c3         1 S87      0.085100
      2 N1         12.1853   -1.1976   23.5245 nx         1 S87     -0.674400
      3 O1          8.7713    1.3722   21.1402 o          1 S87     -0.626100
      4 C2         11.3128   -2.0930   22.6411 c3         1 S87      0.064800
      5 N2          9.7081   -0.2878   22.4359 n          1 S87     -0.401800
      6 C3          9.8384   -1.6952   22.8437 c3         1 S87      0.028500
      7 N3          6.0663   -0.0799   17.8414 na         1 S87     -0.260100
      8 C4         10.5046    0.6456   23.2447 c3         1 S87      0.028500
      9 N4          4.2223    1.4222   18.5356 nb         1 S87     -0.674000
     10 C5         11.9962    0.2680   23.1343 c3         1 S87      0.064800
     11 C6          8.8207    0.1738   21.4660 c          1 S87      0.723100
     12 N7          7.9796   -0.7724   20.8584 ns         1 S87     -0.403100
     13 C8          7.0924   -0.3342   19.8757 cc         1 S87     -0.016600
     14 C9          7.1239   -0.6814   18.5334 cd         1 S87      0.061300
     15 C10         5.3595    0.6798   18.7628 ca         1 S87      0.463800
     16 C11         3.7168    1.9663   19.6604 ca         1 S87      0.655900
     17 N5          4.2086    1.8558   20.9489 nb         1 S87     -0.693000
     18 C13         5.3338    1.1501   21.1347 ca         1 S87      0.477200
     19 C14         5.9691    0.5299   20.0482 ca         1 S87     -0.325400
     20 HN1        11.8851   -1.3341   24.5355 hn         1 S87      0.441800
     21 H22        11.4798   -3.1719   22.8986 hx         1 S87      0.121200
     22 H23        11.6117   -2.0088   21.5644 hx         1 S87      0.121200
     23 H32         9.1992   -2.4005   22.2554 h1         1 S87      0.100950
     24 H33         9.4938   -1.8298   23.9041 h1         1 S87      0.100950
     25 H42        10.3833    1.7095   22.9256 h1         1 S87      0.100950
     26 H43        10.1453    0.6309   24.3046 h1         1 S87      0.100950
     27 H52        12.6153    0.9386   23.7834 hx         1 S87      0.121200
     28 H53        12.3848    0.4396   22.1035 hx         1 S87      0.121200
     29 Cl1         8.1554   -1.7351   17.8032 cl         1 S87     -0.012400
     30 H11         2.7964    2.5728   19.5373 h5         1 S87      0.072100
     31 H13         5.7146    1.0660   22.1708 h4         1 S87      0.026100
     32 HN3         5.9397   -0.1271   16.8304 hn         1 S87      0.335700
     33 H14        13.8183   -2.6307   23.7281 hx         1 S87      0.106367
     34 H15        13.9664   -1.5460   22.3087 hx         1 S87      0.106367
     35 H16        14.3088   -0.9332   23.9574 hx         1 S87      0.106367
     36 HN7         8.1453   -1.7831   20.9046 hn         1 S87      0.351500
@<TRIPOS>BOND
    1    18    19 1
    2    17    18 1
    3    16    17 1
    4    15    19 1
    5    14    29 1
    6    13    14 1
    7    13    19 1
    8    12    13 1
    9    11    12 1
   10     9    15 1
   11     9    16 1
   12     8    10 1
   13     7    14 1
   14     7    15 1
   15     5    11 1
   16     5     6 1
   17     5     8 1
   18     4     6 1
   19     3    11 1
   20     2     4 1
   21     2    10 1
   22     1     2 1
   23    18    31 1
   24    16    30 1
   25    12    36 1
   26    10    27 1
   27    10    28 1
   28     8    25 1
   29     8    26 1
   30     7    32 1
   31     6    23 1
   32     6    24 1
   33     4    21 1
   34     4    22 1
   35     2    20 1
   36     1    33 1
   37     1    34 1
   38     1    35 1
@<TRIPOS>SUBSTRUCTURE
      1 S87               1 ****               0 ****  **** 
