@<TRIPOS>MOLECULE
Cpptraj Generated mol2 file.
   37    39     1     0     0
SMALL
USER_CHARGES


@<TRIPOS>ATOM
      1 C1         13.6871   -1.5647   23.4024 c3         1 S81      0.085100
      2 N1         12.2409   -1.1332   23.5599 nx         1 S81     -0.674400
      3 O1          8.8368    1.4662   21.1910 o          1 S81     -0.660100
      4 C2         11.3393   -2.0326   22.7107 c3         1 S81      0.065800
      5 N2          9.7717   -0.1954   22.4810 n          1 S81     -0.398800
      6 C3          9.8763   -1.5948   22.9164 c3         1 S81      0.029000
      7 N3          6.1042    0.1037   17.9534 na         1 S81     -0.270100
      8 C4         10.5932    0.7348   23.2663 c3         1 S81      0.029000
      9 N4          4.1482    1.4192   18.6915 nb         1 S81     -0.653000
     10 C5         12.0758    0.3266   23.1318 c3         1 S81      0.065800
     11 C6          8.8664    0.2668   21.5212 c          1 S81      0.709100
     12 N7          7.9985   -0.6684   20.9478 ns         1 S81     -0.373100
     13 C8          7.1020   -0.2338   19.9635 cc         1 S81     -0.048600
     14 C9          7.2057   -0.4630   18.5980 cd         1 S81     -0.087100
     15 C10         5.3175    0.7367   18.9156 ca         1 S81      0.437800
     16 C11         3.5743    1.8887   19.8101 ca         1 S81      0.428200
     17 C12         4.0788    1.7137   21.1223 ca         1 S81     -0.257300
     18 C13         5.2592    1.0304   21.3243 ca         1 S81     -0.055000
     19 C14         5.9114    0.5277   20.1958 ca         1 S81     -0.213100
     20 HN1        11.9492   -1.2414   24.5758 hn         1 S81      0.441800
     21 H22        11.4818   -3.1078   22.9991 hx         1 S81      0.120700
     22 H23        11.6290   -1.9826   21.6300 hx         1 S81      0.120700
     23 H32         9.2174   -2.2957   22.3472 h1         1 S81      0.100200
     24 H33         9.5410   -1.7055   23.9810 h1         1 S81      0.100200
     25 H42        10.4851    1.7969   22.9369 h1         1 S81      0.100200
     26 H43        10.2560    0.7400   24.3353 h1         1 S81      0.100200
     27 H52        12.7233    1.0007   23.7488 hx         1 S81      0.120700
     28 H53        12.4407    0.4578   22.0857 hx         1 S81      0.120700
     29 H9          7.9664   -1.0163   18.0446 h4         1 S81      0.198000
     30 H11         2.6405    2.4468   19.6401 h4         1 S81      0.037100
     31 H12         3.5157    2.1341   21.9657 ha         1 S81      0.154000
     32 H13         5.6733    0.8695   22.3298 ha         1 S81      0.133000
     33 HN3         5.9732    0.1220   16.9476 hn         1 S81      0.324700
     34 H14        13.8460   -2.6013   23.7771 hx         1 S81      0.106033
     35 H15        14.0112   -1.5366   22.3434 hx         1 S81      0.106033
     36 H16        14.3694   -0.9111   23.9826 hx         1 S81      0.106033
     37 HN7         8.1687   -1.6763   20.9977 hn         1 S81      0.350500
@<TRIPOS>BOND
    1    18    19 1
    2    17    18 1
    3    16    17 1
    4    15    19 1
    5    13    14 1
    6    13    19 1
    7    12    13 1
    8    11    12 1
    9     9    15 1
   10     9    16 1
   11     8    10 1
   12     7    14 1
   13     7    15 1
   14     5    11 1
   15     5     6 1
   16     5     8 1
   17     4     6 1
   18     3    11 1
   19     2     4 1
   20     2    10 1
   21     1     2 1
   22    18    32 1
   23    17    31 1
   24    16    30 1
   25    14    29 1
   26    12    37 1
   27    10    27 1
   28    10    28 1
   29     8    25 1
   30     8    26 1
   31     7    33 1
   32     6    23 1
   33     6    24 1
   34     4    21 1
   35     4    22 1
   36     2    20 1
   37     1    34 1
   38     1    35 1
   39     1    36 1
@<TRIPOS>SUBSTRUCTURE
      1 S81               1 ****               0 ****  **** 
