@<TRIPOS>MOLECULE
S30
   31    33     1     0     1 
SMALL
USER_CHARGES
@<TRIPOS>ATOM
  1 O1     -0.508000    0.948000    1.470000 o     1 S30    -0.6021 ****
  2 C1     -0.291000    0.607000    0.315000 c     1 S30     0.7671 ****
  3 N1      0.529000   -0.448000   -0.049000 ns    1 S30    -0.4521 ****
  4 N2     -0.824000    1.216000   -0.810000 ns    1 S30    -0.4611 ****
  5 C2      1.313000   -1.239000    0.818000 ca    1 S30    -0.0077 ****
  6 C3     -1.780000    2.252000   -0.835000 ca    1 S30     0.0586 ****
  7 C4      1.867000   -2.449000    0.344000 ca    1 S30    -0.1138 ****
  8 C5      1.633000   -0.908000    2.135000 ca    1 S30     0.3532 ****
  9 C6     -1.901000    2.993000   -2.017000 ca    1 S30    -0.1560 ****
 10 C7     -2.628000    2.540000    0.235000 ca    1 S30    -0.1560 ****
 11 C8      2.662000   -3.208000    1.206000 ca    1 S30    -0.1495 ****
 12 C9      1.818000   -3.162000   -0.893000 cc    1 S30    -0.2002 ****
 13 N3      2.411000   -1.653000    2.963000 nb    1 S30    -0.6330 ****
 14 C10    -2.844000    4.019000   -2.119000 ca    1 S30    -0.1085 ****
 15 C11    -3.572000    3.567000    0.133000 ca    1 S30    -0.1085 ****
 16 N4      3.071000   -4.327000    0.518000 na    1 S30    -0.1804 ****
 17 C12     2.929000   -2.812000    2.510000 ca    1 S30     0.3712 ****
 18 C13     2.567000   -4.308000   -0.755000 cd    1 S30    -0.0941 ****
 19 C14    -3.678000    4.307000   -1.042000 ca    1 S30    -0.1490 ****
 20 H1      0.478000   -0.761000   -1.005000 hn    1 S30     0.3105 ****
 21 H2     -0.395000    0.987000   -1.692000 hn    1 S30     0.3055 ****
 22 H3      1.278000    0.010000    2.594000 h4    1 S30     0.0591 ****
 23 H4     -1.259000    2.791000   -2.870000 ha    1 S30     0.1485 ****
 24 H5     -2.584000    1.974000    1.162000 ha    1 S30     0.1485 ****
 25 H6      1.288000   -2.873000   -1.790000 ha    1 S30     0.1520 ****
 26 H7     -2.925000    4.595000   -3.037000 ha    1 S30     0.1340 ****
 27 H8     -4.223000    3.784000    0.976000 ha    1 S30     0.1340 ****
 28 H9      3.658000   -5.055000    0.902000 hn    1 S30     0.3047 ****
 29 H10     3.541000   -3.381000    3.199000 h4    1 S30     0.0231 ****
 30 H11     2.781000   -5.110000   -1.448000 h4    1 S30     0.1690 ****
 31 H12    -4.412000    5.106000   -1.117000 ha    1 S30     0.1330 ****
@<TRIPOS>BOND
    1     1     2 1
    2     2     3 1
    3     2     4 1
    4     3     5 1
    5     3    20 1
    6     4     6 1
    7     4    21 1
    8     5     7 1
    9     5     8 1
   10     6     9 1
   11     6    10 1
   12     7    11 1
   13     7    12 1
   14     8    13 1
   15     8    22 1
   16     9    14 1
   17     9    23 1
   18    10    15 1
   19    10    24 1
   20    11    16 1
   21    11    17 1
   22    12    18 1
   23    12    25 1
   24    13    17 1
   25    14    19 1
   26    14    26 1
   27    15    19 1
   28    15    27 1
   29    16    18 1
   30    16    28 1
   31    17    29 1
   32    18    30 1
   33    19    31 1
@<TRIPOS>SUBSTRUCTURE
      1  S30              1 ****               0 ****  **** 
