@<TRIPOS>MOLECULE
S27
   35    36     1     0     1 
SMALL
USER_CHARGES
@<TRIPOS>ATOM
  1 O1      1.370000    1.872000   -0.241000 o     1 S27    -0.6001 ****
  2 C1      1.359000    0.703000    0.122000 c     1 S27     0.7671 ****
  3 N1      0.214000   -0.069000    0.247000 ns    1 S27    -0.4601 ****
  4 N2      2.480000   -0.036000    0.467000 ns    1 S27    -0.4601 ****
  5 C2     -1.116000    0.376000    0.079000 ca    1 S27    -0.0197 ****
  6 C3      3.824000    0.375000    0.359000 ca    1 S27     0.0566 ****
  7 C4     -1.509000    1.706000    0.083000 ca    1 S27     0.3512 ****
  8 C5     -2.119000   -0.595000   -0.064000 ca    1 S27    -0.2120 ****
  9 C6      4.248000    1.405000   -0.483000 ca    1 S27    -0.1550 ****
 10 C7      4.778000   -0.325000    1.110000 ca    1 S27    -0.1550 ****
 11 N3     -2.794000    2.105000   -0.048000 nb    1 S27    -0.6210 ****
 12 C8     -3.474000   -0.254000   -0.211000 ca    1 S27     0.0673 ****
 13 C9      5.602000    1.744000   -0.560000 ca    1 S27    -0.1085 ****
 14 C10     6.131000    0.015000    1.032000 ca    1 S27    -0.1085 ****
 15 C11    -3.722000    1.125000   -0.192000 ca    1 S27     0.3212 ****
 16 N4     -4.474000   -1.208000   -0.359000 nh    1 S27    -0.6470 ****
 17 C12     6.543000    1.051000    0.198000 ca    1 S27    -0.1490 ****
 18 C13    -4.166000   -2.630000   -0.430000 c3    1 S27     0.1821 ****
 19 C14    -5.869000   -0.806000   -0.506000 c3    1 S27     0.1821 ****
 20 H1      0.347000   -1.062000    0.352000 hn    1 S27     0.3075 ****
 21 H2      2.318000   -0.896000    0.966000 hn    1 S27     0.3055 ****
 22 H3     -0.806000    2.523000    0.208000 h4    1 S27     0.0581 ****
 23 H4     -1.827000   -1.640000   -0.063000 ha    1 S27     0.1340 ****
 24 H5      3.544000    1.958000   -1.099000 ha    1 S27     0.1480 ****
 25 H6      4.483000   -1.135000    1.771000 ha    1 S27     0.1480 ****
 26 H7      5.917000    2.552000   -1.216000 ha    1 S27     0.1340 ****
 27 H8      6.863000   -0.528000    1.625000 ha    1 S27     0.1340 ****
 28 H9     -4.729000    1.519000   -0.297000 h4    1 S27     0.0241 ****
 29 H10     7.594000    1.319000    0.137000 ha    1 S27     0.1340 ****
 30 H11    -5.067000   -3.239000   -0.562000 h1    1 S27     0.0399 ****
 31 H12    -3.510000   -2.845000   -1.281000 h1    1 S27     0.0399 ****
 32 H13    -3.686000   -2.971000    0.493000 h1    1 S27     0.0399 ****
 33 H14    -6.202000   -0.228000    0.362000 h1    1 S27     0.0399 ****
 34 H15    -6.007000   -0.209000   -1.415000 h1    1 S27     0.0399 ****
 35 H16    -6.538000   -1.670000   -0.586000 h1    1 S27     0.0399 ****
@<TRIPOS>BOND
    1     1     2 1
    2     2     3 1
    3     2     4 1
    4     3     5 1
    5     3    20 1
    6     4     6 1
    7     4    21 1
    8     5     7 1
    9     5     8 1
   10     6     9 1
   11     6    10 1
   12     7    11 1
   13     7    22 1
   14     8    12 1
   15     8    23 1
   16     9    13 1
   17     9    24 1
   18    10    14 1
   19    10    25 1
   20    11    15 1
   21    12    16 1
   22    12    15 1
   23    13    17 1
   24    13    26 1
   25    14    17 1
   26    14    27 1
   27    15    28 1
   28    16    18 1
   29    16    19 1
   30    17    29 1
   31    18    30 1
   32    18    31 1
   33    18    32 1
   34    19    33 1
   35    19    34 1
   36    19    35 1
@<TRIPOS>SUBSTRUCTURE
      1  S27              1 ****               0 ****  **** 
