@<TRIPOS>MOLECULE
S43
   37    39     1     0     0
SMALL
bcc


@<TRIPOS>ATOM
      1 O1           1.7180    -0.2710     0.2410 o          1 S43      -0.573100
      2 C1           0.8170     0.4590    -0.1480 c          1 S43       0.663100
      3 N1           0.4380     1.6690     0.4090 ns         1 S43      -0.473100
      4 C2           0.0130     0.1510    -1.4080 c3         1 S43      -0.146400
      5 C3           0.8270     2.2640     1.5910 cc         1 S43      -0.002700
      6 C4           0.1430    -1.3100    -1.8810 c3         1 S43      -0.057700
      7 C5           1.4480     1.5810     2.6760 cc         1 S43      -0.058300
      8 C6           0.5730     3.5840     1.7680 cd         1 S43       0.319200
      9 C7          -0.5510    -2.3030    -0.9320 c3         1 S43      -0.075400
     10 C8          -0.4020    -1.4790    -3.3100 c3         1 S43      -0.075400
     11 N2           1.7890     2.3750     3.7510 na         1 S43       0.034200
     12 C9           1.8000     0.3050     3.0620 cd         1 S43      -0.283600
     13 N3           0.9020     4.3550     2.8680 nd         1 S43      -0.668000
     14 C10         -2.0760    -2.2410    -1.0020 c3         1 S43      -0.077400
     15 C11         -1.9260    -1.4000    -3.3810 c3         1 S43      -0.077400
     16 N4           2.3820     1.7110     4.7660 nc         1 S43      -0.552100
     17 C12          1.5160     3.7360     3.8360 cc         1 S43       0.526400
     18 C13          2.3860     0.4470     4.3370 cd         1 S43       0.364500
     19 C14         -2.5830    -2.3970    -2.4330 c3         1 S43      -0.077400
     20 H1          -0.1540     2.2400    -0.1840 hn         1 S43       0.318500
     21 H2           0.3910     0.8240    -2.1880 hc         1 S43       0.067200
     22 H3          -1.0360     0.4160    -1.2340 hc         1 S43       0.067200
     23 H4           1.2110    -1.5630    -1.9080 hc         1 S43       0.075700
     24 H5           0.0850     4.1540     0.9800 h4         1 S43       0.029100
     25 H6          -0.2290    -2.1440     0.1030 hc         1 S43       0.045450
     26 H7          -0.2330    -3.3200    -1.1980 hc         1 S43       0.045450
     27 H8          -0.0830    -2.4560    -3.6960 hc         1 S43       0.045450
     28 H9           0.0370    -0.7270    -3.9770 hc         1 S43       0.045450
     29 H10          1.6680    -0.6170     2.5170 ha         1 S43       0.185000
     30 H11         -2.4330    -1.2910    -0.5870 hc         1 S43       0.038450
     31 H12         -2.5030    -3.0340    -0.3770 hc         1 S43       0.038450
     32 H13         -2.2540    -1.6020    -4.4070 hc         1 S43       0.038450
     33 H14         -2.2600    -0.3840    -3.1390 hc         1 S43       0.038450
     34 H15          1.8230     4.2740     4.7470 h5         1 S43       0.072100
     35 H16          2.8050    -0.3250     4.9710 h4         1 S43       0.054800
     36 H17         -2.3790    -3.4170    -2.7800 hc         1 S43       0.041700
     37 H18         -3.6710    -2.2660    -2.4550 hc         1 S43       0.041700
@<TRIPOS>BOND
     1     1     2 2   
     2     2     3 1   
     3     2     4 1   
     4     3     5 1   
     5     3    20 1   
     6     4     6 1   
     7     4    21 1   
     8     4    22 1   
     9     5     7 1   
    10     5     8 2   
    11     6     9 1   
    12     6    10 1   
    13     6    23 1   
    14     7    11 1   
    15     7    12 2   
    16     8    13 1   
    17     8    24 1   
    18     9    14 1   
    19     9    25 1   
    20     9    26 1   
    21    10    15 1   
    22    10    27 1   
    23    10    28 1   
    24    11    16 1   
    25    11    17 1   
    26    12    18 1   
    27    12    29 1   
    28    13    17 2   
    29    14    19 1   
    30    14    30 1   
    31    14    31 1   
    32    15    19 1   
    33    15    32 1   
    34    15    33 1   
    35    16    18 2   
    36    17    34 1   
    37    18    35 1   
    38    19    36 1   
    39    19    37 1   
@<TRIPOS>SUBSTRUCTURE
     1 S43         1 TEMP              0 ****  ****    0 ROOT
