@<TRIPOS>MOLECULE
S36
   34    35     1     0     0
SMALL
bcc


@<TRIPOS>ATOM
      1 O1          -0.3480     0.4860    -1.4780 o          1 S36      -0.589100
      2 C1          -0.5090    -0.4840    -0.7480 c          1 S36       0.667100
      3 N1          -1.5660    -1.3800    -0.7980 ns         1 S36      -0.467100
      4 C2           0.4970    -0.8710     0.3300 c3         1 S36      -0.151400
      5 C3          -2.6790    -1.3370    -1.6650 ca         1 S36      -0.044700
      6 C4           1.5450     0.2160     0.6210 c3         1 S36      -0.062700
      7 C5          -3.5830    -2.4000    -1.6470 ca         1 S36       0.341200
      8 C6          -2.9590    -0.2910    -2.5400 ca         1 S36      -0.124000
      9 C7           2.7060    -0.3770     1.4380 c3         1 S36      -0.075900
     10 C8           0.9230     1.4070     1.3700 c3         1 S36      -0.075900
     11 N2          -4.6950    -2.4860    -2.4160 nb         1 S36      -0.642000
     12 C9          -4.0950    -0.3480    -3.3490 ca         1 S36      -0.217300
     13 C10          3.7490     0.6800     1.7910 c3         1 S36      -0.075900
     14 C11          1.9680     2.4630     1.7220 c3         1 S36      -0.075900
     15 C12         -4.9230    -1.4530    -3.2530 ca         1 S36       0.359200
     16 C13          3.1250     1.8670     2.5170 c3         1 S36      -0.078400
     17 H1          -1.5300    -2.1630    -0.1580 hn         1 S36       0.318500
     18 H2          -0.0420    -1.1310     1.2490 hc         1 S36       0.070200
     19 H3           0.9980    -1.7810    -0.0250 hc         1 S36       0.070200
     20 H4           1.9550     0.5820    -0.3300 hc         1 S36       0.070700
     21 H5          -3.4380    -3.2530    -0.9900 h4         1 S36       0.016100
     22 H6          -2.3190     0.5820    -2.6170 ha         1 S36       0.179000
     23 H7           3.1890    -1.1810     0.8700 hc         1 S36       0.040450
     24 H8           2.3200    -0.8260     2.3610 hc         1 S36       0.040450
     25 H9           0.1380     1.8740     0.7640 hc         1 S36       0.040450
     26 H10          0.4420     1.0570     2.2930 hc         1 S36       0.040450
     27 H11         -4.3250     0.4580    -4.0370 ha         1 S36       0.145000
     28 H12          4.5290     0.2330     2.4190 hc         1 S36       0.043450
     29 H13          4.2400     1.0300     0.8740 hc         1 S36       0.043450
     30 H14          2.3530     2.9170     0.8000 hc         1 S36       0.043450
     31 H15          1.5000     3.2670     2.3010 hc         1 S36       0.043450
     32 H16         -5.8180    -1.5380    -3.8640 h4         1 S36       0.023100
     33 H17          3.8870     2.6350     2.6930 hc         1 S36       0.041200
     34 H18          2.7630     1.5440     3.5010 hc         1 S36       0.041200
@<TRIPOS>BOND
     1     1     2 2   
     2     2     3 1   
     3     2     4 1   
     4     3     5 1   
     5     3    17 1   
     6     4     6 1   
     7     4    18 1   
     8     4    19 1   
     9     5     7 ar  
    10     5     8 ar  
    11     6     9 1   
    12     6    10 1   
    13     6    20 1   
    14     7    11 ar  
    15     7    21 1   
    16     8    12 ar  
    17     8    22 1   
    18     9    13 1   
    19     9    23 1   
    20     9    24 1   
    21    10    14 1   
    22    10    25 1   
    23    10    26 1   
    24    11    15 ar  
    25    12    15 ar  
    26    12    27 1   
    27    13    16 1   
    28    13    28 1   
    29    13    29 1   
    30    14    16 1   
    31    14    30 1   
    32    14    31 1   
    33    15    32 1   
    34    16    33 1   
    35    16    34 1   
@<TRIPOS>SUBSTRUCTURE
     1 S36         1 TEMP              0 ****  ****    0 ROOT
