@<TRIPOS>MOLECULE
S33
   30    32     1     0     1 
SMALL
USER_CHARGES
@<TRIPOS>ATOM
  1 O1     -0.469000   -0.543000   -1.612000 o     1 S33    -0.6081 ****
  2 C1     -0.164000    0.091000   -0.610000 c     1 S33     0.7721 ****
  3 N1      0.019000   -0.474000    0.636000 ns    1 S33    -0.4531 ****
  4 N2      0.037000    1.460000   -0.559000 ns    1 S33    -0.4621 ****
  5 C2     -0.133000   -1.829000    0.985000 ca    1 S33     0.0173 ****
  6 C3     -0.001000    2.368000   -1.636000 ca    1 S33     0.0606 ****
  7 C4      0.169000   -2.207000    2.303000 ca    1 S33     0.0374 ****
  8 C5     -0.565000   -2.866000    0.165000 ca    1 S33     0.3522 ****
  9 C6      0.075000    1.984000   -2.976000 ca    1 S33    -0.1570 ****
 10 C7     -0.084000    3.732000   -1.326000 ca    1 S33    -0.1570 ****
 11 N3      0.613000   -1.429000    3.357000 nc    1 S33    -0.5821 ****
 12 C8      0.031000   -3.531000    2.695000 ca    1 S33    -0.1725 ****
 13 N4     -0.700000   -4.166000    0.555000 nb    1 S33    -0.6280 ****
 14 C9      0.051000    2.946000   -3.991000 ca    1 S33    -0.1085 ****
 15 C10    -0.108000    4.693000   -2.340000 ca    1 S33    -0.1085 ****
 16 C11     0.744000   -2.262000    4.364000 cd    1 S33     0.4297 ****
 17 N5      0.405000   -3.541000    4.014000 na    1 S33    -0.2763 ****
 18 C12    -0.402000   -4.517000    1.827000 ca    1 S33     0.3762 ****
 19 C13    -0.042000    4.299000   -3.674000 ca    1 S33    -0.1500 ****
 20 H1      0.348000    0.108000    1.397000 hn    1 S33     0.3295 ****
 21 H2      0.141000    1.863000    0.358000 hn    1 S33     0.3105 ****
 22 H3     -0.835000   -2.699000   -0.874000 h4    1 S33     0.0651 ****
 23 H4      0.163000    0.941000   -3.264000 ha    1 S33     0.1490 ****
 24 H5     -0.140000    4.065000   -0.293000 ha    1 S33     0.1490 ****
 25 H6      0.107000    2.632000   -5.030000 ha    1 S33     0.1340 ****
 26 H7     -0.180000    5.748000   -2.088000 ha    1 S33     0.1340 ****
 27 H8      1.076000   -2.005000    5.362000 h5    1 S33     0.0728 ****
 28 H9      0.427000   -4.347000    4.622000 hn    1 S33     0.3117 ****
 29 H10    -0.521000   -5.559000    2.096000 h4    1 S33     0.0261 ****
 30 H11    -0.061000    5.044000   -4.465000 ha    1 S33     0.1330 ****
@<TRIPOS>BOND
    1     1     2 1
    2     2     3 1
    3     2     4 1
    4     3     5 1
    5     3    20 1
    6     4     6 1
    7     4    21 1
    8     5     7 1
    9     5     8 1
   10     6     9 1
   11     6    10 1
   12     7    11 1
   13     7    12 1
   14     8    13 1
   15     8    22 1
   16     9    14 1
   17     9    23 1
   18    10    15 1
   19    10    24 1
   20    11    16 1
   21    12    17 1
   22    12    18 1
   23    13    18 1
   24    14    19 1
   25    14    25 1
   26    15    19 1
   27    15    26 1
   28    16    17 1
   29    16    27 1
   30    17    28 1
   31    18    29 1
   32    19    30 1
@<TRIPOS>SUBSTRUCTURE
      1  S33              1 ****               0 ****  **** 
