@<TRIPOS>MOLECULE
S42
   38    40     1     0     1 
SMALL
USER_CHARGES
@<TRIPOS>ATOM
  1 O1      0.618000    0.598000    1.983000 o     1 S42    -0.5871 ****
  2 C1      0.489000    0.486000    0.770000 c     1 S42     0.6641 ****
  3 N1      1.258000   -0.314000   -0.056000 ns    1 S42    -0.4611 ****
  4 C2     -0.554000    1.269000   -0.021000 c3    1 S42    -0.1484 ****
  5 C3      2.312000   -1.168000    0.332000 ca    1 S42     0.0023 ****
  6 C4     -1.603000    1.972000    0.862000 c3    1 S42    -0.0587 ****
  7 C5      3.016000   -1.891000   -0.658000 ca    1 S42    -0.1198 ****
  8 C6      2.739000   -1.381000    1.644000 ca    1 S42     0.3332 ****
  9 C7     -2.388000    3.023000    0.058000 c3    1 S42    -0.0774 ****
 10 C8     -2.577000    0.980000    1.525000 c3    1 S42    -0.0774 ****
 11 C9      4.055000   -2.737000   -0.264000 ca    1 S42    -0.1455 ****
 12 C10     2.933000   -1.988000   -2.081000 cc    1 S42    -0.1972 ****
 13 N2      3.752000   -2.208000    2.014000 nb    1 S42    -0.6300 ****
 14 C11    -3.369000    2.403000   -0.936000 c3    1 S42    -0.0769 ****
 15 C12    -3.574000    0.364000    0.543000 c3    1 S42    -0.0769 ****
 16 N3      4.573000   -3.316000   -1.400000 na    1 S42    -0.1814 ****
 17 C13     4.420000   -2.894000    1.065000 ca    1 S42     0.3632 ****
 18 C14     3.901000   -2.870000   -2.506000 cd    1 S42    -0.0981 ****
 19 C15    -4.322000    1.431000   -0.249000 c3    1 S42    -0.0774 ****
 20 H1      1.058000   -0.288000   -1.047000 hn    1 S42     0.3195 ****
 21 H2     -1.030000    0.595000   -0.741000 hc    1 S42     0.0687 ****
 22 H3      0.000000    2.020000   -0.599000 hc    1 S42     0.0687 ****
 23 H4     -1.071000    2.504000    1.662000 hc    1 S42     0.0697 ****
 24 H5      2.271000   -0.883000    2.486000 h4    1 S42     0.0611 ****
 25 H6     -1.698000    3.689000   -0.473000 hc    1 S42     0.0457 ****
 26 H7     -2.950000    3.654000    0.758000 hc    1 S42     0.0457 ****
 27 H8     -2.032000    0.181000    2.038000 hc    1 S42     0.0457 ****
 28 H9     -3.141000    1.514000    2.302000 hc    1 S42     0.0457 ****
 29 H10     2.241000   -1.470000   -2.730000 ha    1 S42     0.1520 ****
 30 H11    -3.946000    3.198000   -1.422000 hc    1 S42     0.0379 ****
 31 H12    -2.819000    1.883000   -1.729000 hc    1 S42     0.0379 ****
 32 H13    -3.053000   -0.309000   -0.147000 hc    1 S42     0.0379 ****
 33 H14    -4.294000   -0.252000    1.094000 hc    1 S42     0.0379 ****
 34 H15     5.340000   -3.976000   -1.411000 hn    1 S42     0.3037 ****
 35 H16     5.221000   -3.543000    1.398000 h4    1 S42     0.0211 ****
 36 H17     4.168000   -3.216000   -3.495000 h4    1 S42     0.1680 ****
 37 H18    -4.982000    1.988000    0.427000 hc    1 S42     0.0412 ****
 38 H19    -4.964000    0.953000   -0.997000 hc    1 S42     0.0412 ****
@<TRIPOS>BOND
    1     1     2 1
    2     2     3 1
    3     2     4 1
    4     3     5 1
    5     3    20 1
    6     4     6 1
    7     4    21 1
    8     4    22 1
    9     5     7 1
   10     5     8 1
   11     6     9 1
   12     6    10 1
   13     6    23 1
   14     7    11 1
   15     7    12 1
   16     8    13 1
   17     8    24 1
   18     9    14 1
   19     9    25 1
   20     9    26 1
   21    10    15 1
   22    10    27 1
   23    10    28 1
   24    11    16 1
   25    11    17 1
   26    12    18 1
   27    12    29 1
   28    13    17 1
   29    14    19 1
   30    14    30 1
   31    14    31 1
   32    15    19 1
   33    15    32 1
   34    15    33 1
   35    16    18 1
   36    16    34 1
   37    17    35 1
   38    18    36 1
   39    19    37 1
   40    19    38 1
@<TRIPOS>SUBSTRUCTURE
      1  S42              1 ****               0 ****  **** 
