@<TRIPOS>MOLECULE
S24
   27    28     1     0     0
SMALL
bcc


@<TRIPOS>ATOM
      1 O1          -1.0550    -0.5200    -0.7250 o          1 S24      -0.603100
      2 C1          -0.0790     0.0090    -0.2110 c          1 S24       0.767100
      3 N1           0.9450     0.6200    -0.9180 ns         1 S24      -0.458100
      4 N2           0.1620     0.0860     1.1520 ns         1 S24      -0.459100
      5 C2           0.9920     0.8200    -2.3140 ca         1 S24      -0.055700
      6 C3          -0.5990    -0.5150     2.1760 ca         1 S24       0.055600
      7 C4          -0.1010     0.7200    -3.1710 ca         1 S24       0.395200
      8 C5           2.2160     1.1810    -2.8820 ca         1 S24      -0.147000
      9 C6          -0.4460    -0.0140     3.4750 ca         1 S24      -0.154500
     10 C7          -1.4520    -1.6000     1.9640 ca         1 S24      -0.154500
     11 N3          -0.0410     0.9440    -4.5100 nb         1 S24      -0.646000
     12 C8           2.3070     1.4100    -4.2540 ca         1 S24      -0.223300
     13 C9          -1.1520    -0.5780     4.5410 ca         1 S24      -0.108500
     14 C10         -2.1580    -2.1630     3.0310 ca         1 S24      -0.108500
     15 C11          1.1610     1.2790    -5.0190 ca         1 S24       0.372200
     16 C12         -2.0090    -1.6520     4.3180 ca         1 S24      -0.148000
     17 H1           1.7830     0.8380    -0.4040 hn         1 S24       0.307500
     18 H2           0.8690     0.7390     1.4510 hn         1 S24       0.306500
     19 H3          -1.0950     0.4650    -2.8170 h4         1 S24       0.060100
     20 H4           3.1100     1.2810    -2.2730 ha         1 S24       0.134000
     21 H5           0.2140     0.8250     3.6750 ha         1 S24       0.148500
     22 H6          -1.5820    -2.0340     0.9770 ha         1 S24       0.148500
     23 H7           3.2490     1.6840    -4.7150 ha         1 S24       0.143000
     24 H8          -1.0340    -0.1770     5.5450 ha         1 S24       0.135000
     25 H9          -2.8230    -3.0040     2.8510 ha         1 S24       0.135000
     26 H10          1.1790     1.4470    -6.0920 h4         1 S24       0.024100
     27 H11         -2.5610    -2.0920     5.1450 ha         1 S24       0.134000
@<TRIPOS>BOND
     1     1     2 2   
     2     2     3 1   
     3     2     4 1   
     4     3     5 1   
     5     3    17 1   
     6     4     6 1   
     7     4    18 1   
     8     5     7 ar  
     9     5     8 ar  
    10     6     9 ar  
    11     6    10 ar  
    12     7    11 ar  
    13     7    19 1   
    14     8    12 ar  
    15     8    20 1   
    16     9    13 ar  
    17     9    21 1   
    18    10    14 ar  
    19    10    22 1   
    20    11    15 ar  
    21    12    15 ar  
    22    12    23 1   
    23    13    16 ar  
    24    13    24 1   
    25    14    16 ar  
    26    14    25 1   
    27    15    26 1   
    28    16    27 1   
@<TRIPOS>SUBSTRUCTURE
     1 S24         1 TEMP              0 ****  ****    0 ROOT
