@<TRIPOS>MOLECULE
S34
   30    32     1     0     0
SMALL
bcc


@<TRIPOS>ATOM
      1 O1          -1.0640    -0.4450     1.1950 o          1 S34      -0.600100
      2 C1          -0.3010     0.1340     0.4330 c          1 S34       0.773100
      3 N1           0.6190    -0.5040    -0.3830 ns         1 S34      -0.460100
      4 N2          -0.2310     1.5080     0.2630 ns         1 S34      -0.460100
      5 C2           0.8930    -1.8880    -0.4030 ca         1 S34       0.024300
      6 C3          -1.0820     2.4720     0.8410 ca         1 S34       0.056600
      7 C4           1.6040    -2.4510    -1.4790 ca         1 S34      -0.239900
      8 C5           0.5470    -2.7890     0.6060 ca         1 S34       0.344200
      9 C6          -0.6290     3.7970     0.8770 ca         1 S34      -0.154500
     10 C7          -2.3550     2.1770     1.3320 ca         1 S34      -0.154500
     11 C8           1.8930    -3.8120    -1.4700 ca         1 S34      -0.145500
     12 C9           2.1660    -1.9950    -2.6950 cc         1 S34       0.333800
     13 N3           0.8370    -4.1190     0.6070 nb         1 S34      -0.619000
     14 C10         -1.4310     4.8070     1.4140 ca         1 S34      -0.108500
     15 C11         -3.1570     3.1880     1.8700 ca         1 S34      -0.108500
     16 N4           2.5750    -4.0560    -2.6300 na         1 S34      -0.011100
     17 C12          1.5110    -4.6490    -0.4360 ca         1 S34       0.371200
     18 N5           2.7620    -2.9650    -3.3930 nd         1 S34      -0.495100
     19 C13         -2.6950     4.5020     1.9120 ca         1 S34      -0.147000
     20 H1           1.0440     0.0510    -1.1090 hn         1 S34       0.314500
     21 H2           0.5830     1.8650    -0.2130 hn         1 S34       0.307500
     22 H3           0.0150    -2.4690     1.4980 h4         1 S34       0.065100
     23 H4           0.3540     4.0610     0.4970 ha         1 S34       0.148500
     24 H5          -2.7540     1.1670     1.3020 ha         1 S34       0.148500
     25 H6           2.1660    -0.9940    -3.1040 h4         1 S34       0.050800
     26 H7          -1.0680     5.8310     1.4450 ha         1 S34       0.135000
     27 H8          -4.1440     2.9450     2.2540 ha         1 S34       0.135000
     28 H9           2.9430    -4.9420    -2.9600 hn         1 S34       0.331700
     29 H10          1.7200    -5.7110    -0.4030 h4         1 S34       0.030100
     30 H11         -3.3210     5.2850     2.3330 ha         1 S34       0.135000
@<TRIPOS>BOND
     1     1     2 2   
     2     2     3 1   
     3     2     4 1   
     4     3     5 1   
     5     3    20 1   
     6     4     6 1   
     7     4    21 1   
     8     5     7 ar  
     9     5     8 ar  
    10     6     9 ar  
    11     6    10 ar  
    12     7    11 ar  
    13     7    12 1   
    14     8    13 ar  
    15     8    22 1   
    16     9    14 ar  
    17     9    23 1   
    18    10    15 ar  
    19    10    24 1   
    20    11    16 1   
    21    11    17 ar  
    22    12    18 2   
    23    12    25 1   
    24    13    17 ar  
    25    14    19 ar  
    26    14    26 1   
    27    15    19 ar  
    28    15    27 1   
    29    16    18 1   
    30    16    28 1   
    31    17    29 1   
    32    19    30 1   
@<TRIPOS>SUBSTRUCTURE
     1 S34         1 TEMP              0 ****  ****    0 ROOT
