@<TRIPOS>MOLECULE
S32
   30    32     1     0     1 
SMALL
USER_CHARGES
@<TRIPOS>ATOM
  1 O1     -0.818000    0.009000   -0.747000 o     1 S32    -0.5951 ****
  2 C1     -0.230000   -0.038000    0.324000 c     1 S32     0.7591 ****
  3 N1      0.210000    1.078000    1.015000 ns    1 S32    -0.4651 ****
  4 N2      0.060000   -1.189000    1.035000 ns    1 S32    -0.4551 ****
  5 C2      0.328000    2.377000    0.548000 cc    1 S32     0.0020 ****
  6 C3     -0.343000   -2.501000    0.714000 ca    1 S32     0.0506 ****
  7 N3      0.574000    2.738000   -0.789000 na    1 S32     0.0237 ****
  8 C4      0.246000    3.395000    1.440000 cd    1 S32     0.3112 ****
  9 C5     -1.426000   -2.788000   -0.119000 ca    1 S32    -0.1525 ****
 10 C6      0.361000   -3.558000    1.303000 ca    1 S32    -0.1525 ****
 11 C7      0.663000    4.071000   -1.132000 cc    1 S32    -0.1606 ****
 12 C8      0.866000    2.052000   -1.943000 cc    1 S32    -0.1701 ****
 13 N4      0.331000    4.745000    1.139000 nd    1 S32    -0.6430 ****
 14 C9     -1.788000   -4.114000   -0.376000 ca    1 S32    -0.1085 ****
 15 C10    -0.001000   -4.883000    1.045000 ca    1 S32    -0.1085 ****
 16 N5      0.913000    4.271000   -2.406000 nd    1 S32    -0.2556 ****
 17 C11     0.520000    5.067000   -0.111000 cc    1 S32     0.4542 ****
 18 C12     1.033000    3.007000   -2.922000 cd    1 S32    -0.0034 ****
 19 C13    -1.075000   -5.161000    0.204000 ca    1 S32    -0.1440 ****
 20 H1      0.227000    0.957000    2.018000 hn    1 S32     0.3195 ****
 21 H2      0.750000   -1.101000    1.766000 hn    1 S32     0.3105 ****
 22 H3      0.071000    3.196000    2.495000 h4    1 S32     0.0351 ****
 23 H4     -2.014000   -1.998000   -0.578000 ha    1 S32     0.1490 ****
 24 H5      1.205000   -3.369000    1.961000 ha    1 S32     0.1490 ****
 25 H6      0.926000    0.976000   -1.988000 h4    1 S32     0.2020 ****
 26 H7     -2.630000   -4.325000   -1.031000 ha    1 S32     0.1370 ****
 27 H8      0.557000   -5.698000    1.500000 ha    1 S32     0.1370 ****
 28 H9      0.588000    6.129000   -0.395000 h4    1 S32     0.0541 ****
 29 H10     1.252000    2.845000   -3.970000 h4    1 S32     0.1860 ****
 30 H11    -1.358000   -6.190000    0.000000 ha    1 S32     0.1360 ****
@<TRIPOS>BOND
    1     1     2 1
    2     2     3 1
    3     2     4 1
    4     3     5 1
    5     3    20 1
    6     4     6 1
    7     4    21 1
    8     5     7 1
    9     5     8 1
   10     6     9 1
   11     6    10 1
   12     7    11 1
   13     7    12 1
   14     8    13 1
   15     8    22 1
   16     9    14 1
   17     9    23 1
   18    10    15 1
   19    10    24 1
   20    11    16 1
   21    11    17 1
   22    12    18 1
   23    12    25 1
   24    13    17 1
   25    14    19 1
   26    14    26 1
   27    15    19 1
   28    15    27 1
   29    16    18 1
   30    17    28 1
   31    18    29 1
   32    19    30 1
@<TRIPOS>SUBSTRUCTURE
      1  S32              1 ****               0 ****  **** 
