@<TRIPOS>MOLECULE
S31
   30    32     1     0     0
SMALL
bcc


@<TRIPOS>ATOM
      1 O1          -1.6990    -0.4270    -0.3910 o          1 S31      -0.602100
      2 C1          -0.5930    -0.1790     0.0700 c          1 S31       0.769100
      3 N1           0.4300     0.4440    -0.6310 ns         1 S31      -0.451100
      4 N2          -0.1860    -0.4770     1.3630 ns         1 S31      -0.457100
      5 C2           0.3960     0.9700    -1.9040 cc         1 S31      -0.023700
      6 C3          -0.9140    -1.2030     2.3270 ca         1 S31       0.054600
      7 C4           1.6190     1.4900    -2.4120 cc         1 S31      -0.074300
      8 C5          -0.6880     1.0500    -2.7110 cd         1 S31       0.366200
      9 C6          -0.5310    -1.0650     3.6670 ca         1 S31      -0.153500
     10 C7          -1.9560    -2.0750     2.0070 ca         1 S31      -0.153500
     11 N3           1.5600     2.0170    -3.6800 na         1 S31       0.045200
     12 C8           2.9290     1.6380    -2.0090 cd         1 S31      -0.338600
     13 N4          -0.7190     1.5890    -3.9910 nd         1 S31      -0.660000
     14 C9          -1.1940    -1.7740     4.6730 ca         1 S31      -0.108500
     15 C10         -2.6190    -2.7840     3.0130 ca         1 S31      -0.108500
     16 N5           2.7420     2.4990    -4.1220 nc         1 S31      -0.550100
     17 C11          0.4040     2.0620    -4.4510 cc         1 S31       0.521400
     18 C12          3.5700     2.2630    -3.1000 cd         1 S31       0.376500
     19 C13         -2.2400    -2.6330     4.3450 ca         1 S31      -0.146000
     20 H1           1.3250     0.4650    -0.1700 hn         1 S31       0.316500
     21 H2           0.6540    -0.0290     1.6920 hn         1 S31       0.308500
     22 H3          -1.6560     0.6800    -2.3840 h4         1 S31       0.072100
     23 H4           0.2790    -0.3990     3.9500 ha         1 S31       0.148500
     24 H5          -2.2700    -2.2300     0.9790 ha         1 S31       0.148500
     25 H6           3.3740     1.3430    -1.0710 ha         1 S31       0.164000
     26 H7          -0.8960    -1.6540     5.7110 ha         1 S31       0.135000
     27 H8          -3.4330    -3.4560     2.7510 ha         1 S31       0.135000
     28 H9           0.4630     2.5050    -5.4570 h5         1 S31       0.074100
     29 H10          4.6090     2.5560    -3.1900 h4         1 S31       0.056800
     30 H11         -2.7590    -3.1840     5.1240 ha         1 S31       0.135000
@<TRIPOS>BOND
     1     1     2 2   
     2     2     3 1   
     3     2     4 1   
     4     3     5 1   
     5     3    20 1   
     6     4     6 1   
     7     4    21 1   
     8     5     7 1   
     9     5     8 2   
    10     6     9 ar  
    11     6    10 ar  
    12     7    11 1   
    13     7    12 2   
    14     8    13 1   
    15     8    22 1   
    16     9    14 ar  
    17     9    23 1   
    18    10    15 ar  
    19    10    24 1   
    20    11    16 1   
    21    11    17 1   
    22    12    18 1   
    23    12    25 1   
    24    13    17 2   
    25    14    19 ar  
    26    14    26 1   
    27    15    19 ar  
    28    15    27 1   
    29    16    18 2   
    30    17    28 1   
    31    18    29 1   
    32    19    30 1   
@<TRIPOS>SUBSTRUCTURE
     1 S31         1 TEMP              0 ****  ****    0 ROOT
