@<TRIPOS>MOLECULE
S40
   40    42     1     0     0
SMALL
bcc


@<TRIPOS>ATOM
      1 O1          -0.2250     1.3060     0.3300 o          1 S40      -0.577100
      2 C1          -0.2090     0.2580    -0.3040 c          1 S40       0.659100
      3 N1           0.8920    -0.3310    -0.8990 ns         1 S40      -0.473100
      4 C2          -1.4720    -0.5760    -0.4530 c3         1 S40      -0.154400
      5 C3           2.1840     0.1510    -1.0260 cc         1 S40      -0.080700
      6 C4          -1.5170    -1.7570     0.5340 c3         1 S40      -0.054700
      7 C5           2.5650     1.5770    -1.0790 cc         1 S40       0.057700
      8 C6           3.1840    -0.7610    -1.1050 cd         1 S40       0.377200
      9 C7          -1.6520    -1.3060     2.0000 c3         1 S40      -0.075400
     10 C8          -2.6550    -2.7290     0.1780 c3         1 S40      -0.075400
     11 N2           3.9610     1.8320    -0.9960 na         1 S40      -0.265200
     12 C9           1.7320     2.6230    -1.3100 cd         1 S40      -0.222000
     13 N3           4.5370    -0.4980    -1.1490 nd         1 S40      -0.729000
     14 C10         -3.0340    -0.7450     2.3300 c3         1 S40      -0.077400
     15 C11         -4.0400    -2.1670     0.4960 c3         1 S40      -0.077400
     16 N4           4.4240     3.1370    -1.0230 na         1 S40      -0.117400
     17 C12          4.8350     0.7630    -1.0690 cc         1 S40       0.581400
     18 C13          2.2480     3.9870    -1.3710 cd         1 S40      -0.108000
     19 C14         -4.1440    -1.7200     1.9510 c3         1 S40      -0.078400
     20 C15          3.5660     4.1930    -1.2170 cc         1 S40      -0.197300
     21 H1           0.7740    -1.3080    -1.1400 hn         1 S40       0.315500
     22 H2          -1.5080    -0.9490    -1.4850 hc         1 S40       0.074700
     23 H3          -2.3330     0.0900    -0.3380 hc         1 S40       0.074700
     24 H4          -0.5720    -2.3110     0.4480 hc         1 S40       0.037700
     25 H5           2.9580    -1.8240    -1.0800 h4         1 S40       0.025100
     26 H6          -1.4660    -2.1720     2.6490 hc         1 S40       0.044950
     27 H7          -0.8840    -0.5670     2.2530 hc         1 S40       0.044950
     28 H8          -2.6030    -3.0030    -0.8830 hc         1 S40       0.044950
     29 H9          -2.5150    -3.6590     0.7440 hc         1 S40       0.044950
     30 H10          0.6690     2.5080    -1.4720 ha         1 S40       0.156000
     31 H11         -3.1860     0.2070     1.8090 hc         1 S40       0.043200
     32 H12         -3.0920    -0.5260     3.4020 hc         1 S40       0.043200
     33 H13         -4.7990    -2.9310     0.2940 hc         1 S40       0.043200
     34 H14         -4.2610    -1.3220    -0.1660 hc         1 S40       0.043200
     35 H15          5.3860     3.3360    -0.7630 hn         1 S40       0.203700
     36 H16          5.8950     1.0670    -1.0800 h5         1 S40       0.059100
     37 H17          1.5510     4.8030    -1.5170 ha         1 S40       0.145000
     38 H18         -4.0910    -2.6000     2.6040 hc         1 S40       0.040700
     39 H19         -5.1210    -1.2540     2.1250 hc         1 S40       0.040700
     40 H20          4.0190     5.1780    -1.2250 h4         1 S40       0.164000
@<TRIPOS>BOND
     1     1     2 2   
     2     2     3 1   
     3     2     4 1   
     4     3     5 1   
     5     3    21 1   
     6     4     6 1   
     7     4    22 1   
     8     4    23 1   
     9     5     7 1   
    10     5     8 2   
    11     6     9 1   
    12     6    10 1   
    13     6    24 1   
    14     7    11 1   
    15     7    12 2   
    16     8    13 1   
    17     8    25 1   
    18     9    14 1   
    19     9    26 1   
    20     9    27 1   
    21    10    15 1   
    22    10    28 1   
    23    10    29 1   
    24    11    16 1   
    25    11    17 1   
    26    12    18 1   
    27    12    30 1   
    28    13    17 2   
    29    14    19 1   
    30    14    31 1   
    31    14    32 1   
    32    15    19 1   
    33    15    33 1   
    34    15    34 1   
    35    16    20 1   
    36    16    35 1   
    37    17    36 1   
    38    18    20 2   
    39    18    37 1   
    40    19    38 1   
    41    19    39 1   
    42    20    40 1   
@<TRIPOS>SUBSTRUCTURE
     1 S40         1 TEMP              0 ****  ****    0 ROOT
