@<TRIPOS>MOLECULE
S37
   36    37     1     0     1 
SMALL
USER_CHARGES
@<TRIPOS>ATOM
  1 O1     -0.371000    0.445000   -1.176000 o     1 S37    -0.5901 ****
  2 C1     -0.576000    0.566000    0.026000 c     1 S37     0.6681 ****
  3 N1     -1.815000    0.681000    0.636000 ns    1 S37    -0.4671 ****
  4 C2      0.556000    0.652000    1.043000 c3    1 S37    -0.1514 ****
  5 C3     -3.078000    0.632000    0.006000 ca    1 S37    -0.0047 ****
  6 C4      1.930000    0.254000    0.479000 c3    1 S37    -0.0617 ****
  7 C5     -4.205000    1.001000    0.740000 ca    1 S37     0.2952 ****
  8 C6     -3.287000    0.207000   -1.307000 ca    1 S37    -0.1970 ****
  9 C7      3.043000    0.700000    1.442000 c3    1 S37    -0.0764 ****
 10 C8      2.016000   -1.262000    0.233000 c3    1 S37    -0.0764 ****
 11 N2     -5.472000    0.976000    0.269000 nb    1 S37    -0.6120 ****
 12 C9     -4.574000    0.189000   -1.852000 ca    1 S37     0.0603 ****
 13 C10     4.425000    0.282000    0.944000 c3    1 S37    -0.0759 ****
 14 C11     3.399000   -1.677000   -0.265000 c3    1 S37    -0.0759 ****
 15 C12    -5.621000    0.564000   -1.012000 ca    1 S37     0.3012 ****
 16 N3     -4.790000   -0.276000   -3.139000 nv    1 S37    -0.8172 ****
 17 C13     4.500000   -1.218000    0.685000 c3    1 S37    -0.0784 ****
 18 H1     -1.820000    0.854000    1.633000 hn    1 S37     0.3195 ****
 19 H2      0.585000    1.694000    1.386000 hc    1 S37     0.0692 ****
 20 H3      0.309000    0.029000    1.911000 hc    1 S37     0.0692 ****
 21 H4      2.087000    0.769000   -0.478000 hc    1 S37     0.0707 ****
 22 H5     -4.124000    1.339000    1.768000 h4    1 S37     0.0171 ****
 23 H6     -2.459000   -0.122000   -1.924000 ha    1 S37     0.1780 ****
 24 H7      2.872000    0.268000    2.436000 hc    1 S37     0.0409 ****
 25 H8      3.020000    1.790000    1.561000 hc    1 S37     0.0409 ****
 26 H9      1.266000   -1.575000   -0.502000 hc    1 S37     0.0409 ****
 27 H10     1.791000   -1.803000    1.162000 hc    1 S37     0.0409 ****
 28 H11     5.184000    0.567000    1.682000 hc    1 S37     0.0432 ****
 29 H12     4.659000    0.825000    0.020000 hc    1 S37     0.0432 ****
 30 H13     3.571000   -1.249000   -1.260000 hc    1 S37     0.0432 ****
 31 H14     3.438000   -2.767000   -0.375000 hc    1 S37     0.0432 ****
 32 H15    -6.649000    0.540000   -1.361000 h4    1 S37     0.0221 ****
 33 H16    -5.703000   -0.196000   -3.567000 hn    1 S37     0.3983 ****
 34 H17    -3.998000   -0.449000   -3.745000 hn    1 S37     0.3983 ****
 35 H18     4.411000   -1.758000    1.636000 hc    1 S37     0.0412 ****
 36 H19     5.480000   -1.472000    0.265000 hc    1 S37     0.0412 ****
@<TRIPOS>BOND
    1     1     2 1
    2     2     3 1
    3     2     4 1
    4     3     5 1
    5     3    18 1
    6     4     6 1
    7     4    19 1
    8     4    20 1
    9     5     7 1
   10     5     8 1
   11     6     9 1
   12     6    10 1
   13     6    21 1
   14     7    11 1
   15     7    22 1
   16     8    12 1
   17     8    23 1
   18     9    13 1
   19     9    24 1
   20     9    25 1
   21    10    14 1
   22    10    26 1
   23    10    27 1
   24    11    15 1
   25    12    16 1
   26    12    15 1
   27    13    17 1
   28    13    28 1
   29    13    29 1
   30    14    17 1
   31    14    30 1
   32    14    31 1
   33    15    32 1
   34    16    33 1
   35    16    34 1
   36    17    35 1
   37    17    36 1
@<TRIPOS>SUBSTRUCTURE
      1  S37              1 ****               0 ****  **** 
