@<TRIPOS>MOLECULE
S35
   33    35     1     0     0
SMALL
bcc


@<TRIPOS>ATOM
      1 O1           1.0510     0.3880    -0.1930 o          1 S35      -0.597100
      2 C1           0.0280     0.4800     0.4710 c          1 S35       0.754100
      3 N1          -0.6930    -0.5880     0.9770 ns         1 S35      -0.467100
      4 N2          -0.5710     1.6750     0.8470 ns         1 S35      -0.459100
      5 C2          -0.5740    -1.9350     0.6690 cc         1 S35       0.045300
      6 C3          -0.0640     2.9720     0.6350 ca         1 S35       0.052600
      7 N3          -0.1440    -2.5270    -0.5650 na         1 S35      -0.213900
      8 C4          -0.9280    -2.7800     1.6770 cd         1 S35      -0.141300
      9 C5          -0.9680     4.0400     0.6920 ca         1 S35      -0.154500
     10 C6           1.2900     3.2400     0.4200 ca         1 S35      -0.154500
     11 C7           0.0400    -3.9520    -0.6400 cc         1 S35       0.455800
     12 C8           0.0230    -1.8490    -1.7660 cc         1 S35       0.046700
     13 N4          -0.8170    -4.1470     1.5790 na         1 S35      -0.195100
     14 C9          -0.5270     5.3540     0.5150 ca         1 S35      -0.108500
     15 C10          1.7310     4.5540     0.2430 ca         1 S35      -0.108500
     16 N5           0.5220    -4.6230    -1.7510 nc         1 S35      -0.684000
     17 C11         -0.3050    -4.7030     0.4320 cd         1 S35      -0.247600
     18 C12          0.4430    -2.4230    -2.8980 cd         1 S35      -0.392300
     19 C13          0.8230     5.6110     0.2880 ca         1 S35      -0.147000
     20 C14          0.7130    -3.8720    -2.7890 cd         1 S35       0.471200
     21 H1          -1.1900    -0.3730     1.8270 hn         1 S35       0.310500
     22 H2          -1.5280     1.6120     1.1560 hn         1 S35       0.307500
     23 H3          -1.2750    -2.4470     2.6490 h4         1 S35       0.158000
     24 H4          -2.0260     3.8660     0.8650 ha         1 S35       0.149000
     25 H5           2.0260     2.4420     0.3920 ha         1 S35       0.149000
     26 H6          -0.2330    -0.7990    -1.7600 h4         1 S35       0.174000
     27 H7          -1.0430    -4.7430     2.3650 hn         1 S35       0.232700
     28 H8          -1.2360     6.1760     0.5530 ha         1 S35       0.135500
     29 H9           2.7860     4.7490     0.0710 ha         1 S35       0.135500
     30 H10         -0.2030    -5.7820     0.4350 h4         1 S35       0.179000
     31 H11          0.5740    -1.9070    -3.8350 ha         1 S35       0.155000
     32 H12          1.1700     6.6310     0.1490 ha         1 S35       0.135000
     33 H13          1.1040    -4.3390    -3.7080 h4         1 S35       0.023100
@<TRIPOS>BOND
     1     1     2 2   
     2     2     3 1   
     3     2     4 1   
     4     3     5 1   
     5     3    21 1   
     6     4     6 1   
     7     4    22 1   
     8     5     7 1   
     9     5     8 2   
    10     6     9 ar  
    11     6    10 ar  
    12     7    11 1   
    13     7    12 1   
    14     8    13 1   
    15     8    23 1   
    16     9    14 ar  
    17     9    24 1   
    18    10    15 ar  
    19    10    25 1   
    20    11    16 1   
    21    11    17 2   
    22    12    18 2   
    23    12    26 1   
    24    13    17 1   
    25    13    27 1   
    26    14    19 ar  
    27    14    28 1   
    28    15    19 ar  
    29    15    29 1   
    30    16    20 2   
    31    17    30 1   
    32    18    20 1   
    33    18    31 1   
    34    19    32 1   
    35    20    33 1   
@<TRIPOS>SUBSTRUCTURE
     1 S35         1 TEMP              0 ****  ****    0 ROOT
