@<TRIPOS>MOLECULE
S39
   42    43     1     0     0
SMALL
bcc


@<TRIPOS>ATOM
      1 O1           1.7430    -1.6700    -1.7910 o          1 S39      -0.582100
      2 C1           0.6740    -1.1150    -1.5670 c          1 S39       0.668100
      3 N1          -0.0210    -1.1260    -0.3720 ns         1 S39      -0.468100
      4 C2          -0.0290    -0.3120    -2.6490 c3         1 S39      -0.155400
      5 C3           0.3690    -1.7630     0.8270 ca         1 S39      -0.010700
      6 C4           0.0680     1.2030    -2.4140 c3         1 S39      -0.060700
      7 C5           1.5450    -2.4770     1.0040 ca         1 S39       0.331200
      8 C6          -0.4960    -1.6630     1.9280 ca         1 S39      -0.220000
      9 C7          -0.8540     1.9460    -3.3940 c3         1 S39      -0.076400
     10 C8           1.5160     1.7030    -2.5570 c3         1 S39      -0.076400
     11 N2           1.8900    -3.0720     2.1680 nb         1 S39      -0.619000
     12 C9          -0.2040    -2.2560     3.1670 ca         1 S39       0.071300
     13 C10         -0.7550     3.4610    -3.2320 c3         1 S39      -0.075900
     14 C11          1.6110     3.2190    -2.3990 c3         1 S39      -0.075900
     15 C12          1.0160    -2.9450     3.1990 ca         1 S39       0.313200
     16 N3          -1.0560    -2.1620     4.2620 nh         1 S39      -0.648000
     17 C13          0.6840     3.9470    -3.3660 c3         1 S39      -0.078400
     18 C14         -2.3180    -1.4380     4.1860 c3         1 S39       0.182600
     19 C15         -0.7100    -2.7950     5.5300 c3         1 S39       0.182600
     20 H1          -0.9020    -0.6300    -0.3490 hn         1 S39       0.315500
     21 H2          -1.0800    -0.6260    -2.6730 hc         1 S39       0.074200
     22 H3           0.4030    -0.5850    -3.6200 hc         1 S39       0.074200
     23 H4          -0.2680     1.4310    -1.3940 hc         1 S39       0.044700
     24 H5           2.2780    -2.6080     0.2160 h4         1 S39       0.062100
     25 H6          -1.4200    -1.1080     1.8060 ha         1 S39       0.134000
     26 H7          -0.5960     1.6760    -4.4260 hc         1 S39       0.046200
     27 H8          -1.8940     1.6360    -3.2350 hc         1 S39       0.046200
     28 H9           1.9130     1.4170    -3.5400 hc         1 S39       0.046200
     29 H10          2.1580     1.2290    -1.8050 hc         1 S39       0.046200
     30 H11         -1.1480     3.7490    -2.2500 hc         1 S39       0.041450
     31 H12         -1.3810     3.9530    -3.9850 hc         1 S39       0.041450
     32 H13          1.3540     3.4950    -1.3690 hc         1 S39       0.041450
     33 H14          2.6450     3.5420    -2.5670 hc         1 S39       0.041450
     34 H15          1.3570    -3.4470     4.0980 h4         1 S39       0.023100
     35 H16          0.7290     5.0260    -3.1800 hc         1 S39       0.041700
     36 H17          1.0300     3.7850    -4.3950 hc         1 S39       0.041700
     37 H18         -2.9750    -1.8790     3.4290 h1         1 S39       0.039533
     38 H19         -2.1470    -0.3820     3.9470 h1         1 S39       0.039533
     39 H20         -2.8640    -1.4640     5.1350 h1         1 S39       0.039533
     40 H21         -0.6080    -3.8790     5.4090 h1         1 S39       0.039533
     41 H22         -1.4790    -2.6310     6.2930 h1         1 S39       0.039533
     42 H23          0.2250    -2.3840     5.9270 h1         1 S39       0.039533
@<TRIPOS>BOND
     1     1     2 2   
     2     2     3 1   
     3     2     4 1   
     4     3     5 1   
     5     3    20 1   
     6     4     6 1   
     7     4    21 1   
     8     4    22 1   
     9     5     7 ar  
    10     5     8 ar  
    11     6     9 1   
    12     6    10 1   
    13     6    23 1   
    14     7    11 ar  
    15     7    24 1   
    16     8    12 ar  
    17     8    25 1   
    18     9    13 1   
    19     9    26 1   
    20     9    27 1   
    21    10    14 1   
    22    10    28 1   
    23    10    29 1   
    24    11    15 ar  
    25    12    16 1   
    26    12    15 ar  
    27    13    17 1   
    28    13    30 1   
    29    13    31 1   
    30    14    17 1   
    31    14    32 1   
    32    14    33 1   
    33    15    34 1   
    34    16    18 1   
    35    16    19 1   
    36    17    35 1   
    37    17    36 1   
    38    18    37 1   
    39    18    38 1   
    40    18    39 1   
    41    19    40 1   
    42    19    41 1   
    43    19    42 1   
@<TRIPOS>SUBSTRUCTURE
     1 S39         1 TEMP              0 ****  ****    0 ROOT
