@<TRIPOS>MOLECULE
S44
   37    39     1     0     0
SMALL
bcc


@<TRIPOS>ATOM
      1 O1          -0.2130    -0.0980     1.7340 o          1 S44      -0.570100
      2 C1          -0.3140     0.3400     0.5950 c          1 S44       0.673100
      3 N1          -0.1920     1.6720     0.2240 ns         1 S44      -0.482100
      4 C2          -0.6320    -0.5490    -0.6010 c3         1 S44      -0.148400
      5 C3           0.0890     2.7660     1.0300 cc         1 S44       0.001000
      6 C4          -0.5270    -2.0540    -0.3030 c3         1 S44      -0.062700
      7 N2           0.1600     4.0410     0.4460 na         1 S44      -0.000300
      8 C5           0.3080     2.7160     2.3670 cd         1 S44       0.335200
      9 C6          -1.2000    -2.8620    -1.4250 c3         1 S44      -0.075900
     10 C7           0.9400    -2.4900    -0.1400 c3         1 S44      -0.075900
     11 C8           0.4370     5.1500     1.2070 cc         1 S44      -0.138600
     12 C9           0.0040     4.4950    -0.8430 cc         1 S44      -0.234100
     13 N3           0.5910     3.8110     3.1770 nd         1 S44      -0.630000
     14 C10         -1.0770    -4.3660    -1.1940 c3         1 S44      -0.076400
     15 C11          1.0600    -3.9950     0.0910 c3         1 S44      -0.076400
     16 N4           0.4670     6.2610     0.5060 nd         1 S44      -0.264600
     17 C12          0.6520     4.9850     2.6130 cc         1 S44       0.435200
     18 C13          0.1970     5.8590    -0.7770 cd         1 S44       0.016600
     19 C14          0.3760    -4.7910    -1.0150 c3         1 S44      -0.078400
     20 H1          -0.3290     1.8650    -0.7600 hn         1 S44       0.325500
     21 H2           0.0300    -0.2820    -1.4340 hc         1 S44       0.072200
     22 H3          -1.6580    -0.3040    -0.9060 hc         1 S44       0.072200
     23 H4          -1.0580    -2.2710     0.6340 hc         1 S44       0.071700
     24 H5           0.2770     1.7780     2.9150 h4         1 S44       0.071100
     25 H6          -2.2610    -2.5950    -1.4920 hc         1 S44       0.040700
     26 H7          -0.7460    -2.6060    -2.3920 hc         1 S44       0.040700
     27 H8           1.5110    -2.2190    -1.0380 hc         1 S44       0.040700
     28 H9           1.4060    -1.9650     0.7010 hc         1 S44       0.040700
     29 H10         -0.2240     3.8480    -1.6750 h4         1 S44       0.178000
     30 H11         -1.5170    -4.9050    -2.0400 hc         1 S44       0.044450
     31 H12         -1.6520    -4.6460    -0.3030 hc         1 S44       0.044450
     32 H13          0.6100    -4.2520     1.0580 hc         1 S44       0.044450
     33 H14          2.1170    -4.2760     0.1470 hc         1 S44       0.044450
     34 H15          0.8740     5.8730     3.2250 h4         1 S44       0.054100
     35 H16          0.1550     6.5740    -1.5900 h4         1 S44       0.185000
     36 H17          0.4220    -5.8610    -0.7830 hc         1 S44       0.042200
     37 H18          0.9180    -4.6450    -1.9580 hc         1 S44       0.042200
@<TRIPOS>BOND
     1     1     2 2   
     2     2     3 1   
     3     2     4 1   
     4     3     5 1   
     5     3    20 1   
     6     4     6 1   
     7     4    21 1   
     8     4    22 1   
     9     5     7 1   
    10     5     8 2   
    11     6     9 1   
    12     6    10 1   
    13     6    23 1   
    14     7    11 1   
    15     7    12 1   
    16     8    13 1   
    17     8    24 1   
    18     9    14 1   
    19     9    25 1   
    20     9    26 1   
    21    10    15 1   
    22    10    27 1   
    23    10    28 1   
    24    11    16 2   
    25    11    17 1   
    26    12    18 2   
    27    12    29 1   
    28    13    17 2   
    29    14    19 1   
    30    14    30 1   
    31    14    31 1   
    32    15    19 1   
    33    15    32 1   
    34    15    33 1   
    35    16    18 1   
    36    17    34 1   
    37    18    35 1   
    38    19    36 1   
    39    19    37 1   
@<TRIPOS>SUBSTRUCTURE
     1 S44         1 TEMP              0 ****  ****    0 ROOT
