@<TRIPOS>MOLECULE
S32
   30    32     1     0     0
SMALL
bcc


@<TRIPOS>ATOM
      1 O1          -0.8180     0.0090    -0.7470 o          1 S32      -0.595100
      2 C1          -0.2300    -0.0380     0.3240 c          1 S32       0.759100
      3 N1           0.2100     1.0780     1.0150 ns         1 S32      -0.465100
      4 N2           0.0600    -1.1890     1.0350 ns         1 S32      -0.455100
      5 C2           0.3280     2.3770     0.5480 cc         1 S32       0.002000
      6 C3          -0.3430    -2.5010     0.7140 ca         1 S32       0.050600
      7 N3           0.5740     2.7380    -0.7890 na         1 S32       0.023700
      8 C4           0.2460     3.3950     1.4400 cd         1 S32       0.311200
      9 C5          -1.4260    -2.7880    -0.1190 ca         1 S32      -0.152500
     10 C6           0.3610    -3.5580     1.3030 ca         1 S32      -0.152500
     11 C7           0.6630     4.0710    -1.1320 cc         1 S32      -0.160600
     12 C8           0.8660     2.0520    -1.9430 cc         1 S32      -0.170100
     13 N4           0.3310     4.7450     1.1390 nd         1 S32      -0.643000
     14 C9          -1.7880    -4.1140    -0.3760 ca         1 S32      -0.108500
     15 C10         -0.0010    -4.8830     1.0450 ca         1 S32      -0.108500
     16 N5           0.9130     4.2710    -2.4060 nd         1 S32      -0.255600
     17 C11          0.5200     5.0670    -0.1110 cc         1 S32       0.454200
     18 C12          1.0330     3.0070    -2.9220 cd         1 S32      -0.003400
     19 C13         -1.0750    -5.1610     0.2040 ca         1 S32      -0.144000
     20 H1           0.2270     0.9570     2.0180 hn         1 S32       0.319500
     21 H2           0.7500    -1.1010     1.7660 hn         1 S32       0.310500
     22 H3           0.0710     3.1960     2.4950 h4         1 S32       0.035100
     23 H4          -2.0140    -1.9980    -0.5780 ha         1 S32       0.149000
     24 H5           1.2050    -3.3690     1.9610 ha         1 S32       0.149000
     25 H6           0.9260     0.9760    -1.9880 h4         1 S32       0.202000
     26 H7          -2.6300    -4.3250    -1.0310 ha         1 S32       0.137000
     27 H8           0.5570    -5.6980     1.5000 ha         1 S32       0.137000
     28 H9           0.5880     6.1290    -0.3950 h4         1 S32       0.054100
     29 H10          1.2520     2.8450    -3.9700 h4         1 S32       0.186000
     30 H11         -1.3580    -6.1900     0.0000 ha         1 S32       0.136000
@<TRIPOS>BOND
     1     1     2 2   
     2     2     3 1   
     3     2     4 1   
     4     3     5 1   
     5     3    20 1   
     6     4     6 1   
     7     4    21 1   
     8     5     7 1   
     9     5     8 2   
    10     6     9 ar  
    11     6    10 ar  
    12     7    11 1   
    13     7    12 1   
    14     8    13 1   
    15     8    22 1   
    16     9    14 ar  
    17     9    23 1   
    18    10    15 ar  
    19    10    24 1   
    20    11    16 2   
    21    11    17 1   
    22    12    18 2   
    23    12    25 1   
    24    13    17 2   
    25    14    19 ar  
    26    14    26 1   
    27    15    19 ar  
    28    15    27 1   
    29    16    18 1   
    30    17    28 1   
    31    18    29 1   
    32    19    30 1   
@<TRIPOS>SUBSTRUCTURE
     1 S32         1 TEMP              0 ****  ****    0 ROOT
