@<TRIPOS>MOLECULE
S39
   42    43     1     0     1 
SMALL
USER_CHARGES
@<TRIPOS>ATOM
  1 O1      1.743000   -1.670000   -1.791000 o     1 S39    -0.5821 ****
  2 C1      0.674000   -1.115000   -1.567000 c     1 S39     0.6681 ****
  3 N1     -0.021000   -1.126000   -0.372000 ns    1 S39    -0.4681 ****
  4 C2     -0.029000   -0.312000   -2.649000 c3    1 S39    -0.1554 ****
  5 C3      0.369000   -1.763000    0.827000 ca    1 S39    -0.0107 ****
  6 C4      0.068000    1.203000   -2.414000 c3    1 S39    -0.0607 ****
  7 C5      1.545000   -2.477000    1.004000 ca    1 S39     0.3312 ****
  8 C6     -0.496000   -1.663000    1.928000 ca    1 S39    -0.2200 ****
  9 C7     -0.854000    1.946000   -3.394000 c3    1 S39    -0.0764 ****
 10 C8      1.516000    1.703000   -2.557000 c3    1 S39    -0.0764 ****
 11 N2      1.890000   -3.072000    2.168000 nb    1 S39    -0.6190 ****
 12 C9     -0.204000   -2.256000    3.167000 ca    1 S39     0.0713 ****
 13 C10    -0.755000    3.461000   -3.232000 c3    1 S39    -0.0759 ****
 14 C11     1.611000    3.219000   -2.399000 c3    1 S39    -0.0759 ****
 15 C12     1.016000   -2.945000    3.199000 ca    1 S39     0.3132 ****
 16 N3     -1.056000   -2.162000    4.262000 nh    1 S39    -0.6480 ****
 17 C13     0.684000    3.947000   -3.366000 c3    1 S39    -0.0784 ****
 18 C14    -2.318000   -1.438000    4.186000 c3    1 S39     0.1826 ****
 19 C15    -0.710000   -2.795000    5.530000 c3    1 S39     0.1826 ****
 20 H1     -0.902000   -0.630000   -0.349000 hn    1 S39     0.3155 ****
 21 H2     -1.080000   -0.626000   -2.673000 hc    1 S39     0.0742 ****
 22 H3      0.403000   -0.585000   -3.620000 hc    1 S39     0.0742 ****
 23 H4     -0.268000    1.431000   -1.394000 hc    1 S39     0.0447 ****
 24 H5      2.278000   -2.608000    0.216000 h4    1 S39     0.0621 ****
 25 H6     -1.420000   -1.108000    1.806000 ha    1 S39     0.1340 ****
 26 H7     -0.596000    1.676000   -4.426000 hc    1 S39     0.0462 ****
 27 H8     -1.894000    1.636000   -3.235000 hc    1 S39     0.0462 ****
 28 H9      1.913000    1.417000   -3.540000 hc    1 S39     0.0462 ****
 29 H10     2.158000    1.229000   -1.805000 hc    1 S39     0.0462 ****
 30 H11    -1.148000    3.749000   -2.250000 hc    1 S39     0.0414 ****
 31 H12    -1.381000    3.953000   -3.985000 hc    1 S39     0.0414 ****
 32 H13     1.354000    3.495000   -1.369000 hc    1 S39     0.0414 ****
 33 H14     2.645000    3.542000   -2.567000 hc    1 S39     0.0414 ****
 34 H15     1.357000   -3.447000    4.098000 h4    1 S39     0.0231 ****
 35 H16     0.729000    5.026000   -3.180000 hc    1 S39     0.0417 ****
 36 H17     1.030000    3.785000   -4.395000 hc    1 S39     0.0417 ****
 37 H18    -2.975000   -1.879000    3.429000 h1    1 S39     0.0395 ****
 38 H19    -2.147000   -0.382000    3.947000 h1    1 S39     0.0395 ****
 39 H20    -2.864000   -1.464000    5.135000 h1    1 S39     0.0395 ****
 40 H21    -0.608000   -3.879000    5.409000 h1    1 S39     0.0395 ****
 41 H22    -1.479000   -2.631000    6.293000 h1    1 S39     0.0395 ****
 42 H23     0.225000   -2.384000    5.927000 h1    1 S39     0.0395 ****
@<TRIPOS>BOND
    1     1     2 1
    2     2     3 1
    3     2     4 1
    4     3     5 1
    5     3    20 1
    6     4     6 1
    7     4    21 1
    8     4    22 1
    9     5     7 1
   10     5     8 1
   11     6     9 1
   12     6    10 1
   13     6    23 1
   14     7    11 1
   15     7    24 1
   16     8    12 1
   17     8    25 1
   18     9    13 1
   19     9    26 1
   20     9    27 1
   21    10    14 1
   22    10    28 1
   23    10    29 1
   24    11    15 1
   25    12    16 1
   26    12    15 1
   27    13    17 1
   28    13    30 1
   29    13    31 1
   30    14    17 1
   31    14    32 1
   32    14    33 1
   33    15    34 1
   34    16    18 1
   35    16    19 1
   36    17    35 1
   37    17    36 1
   38    18    37 1
   39    18    38 1
   40    18    39 1
   41    19    40 1
   42    19    41 1
   43    19    42 1
@<TRIPOS>SUBSTRUCTURE
      1  S39              1 ****               0 ****  **** 
