@<TRIPOS>MOLECULE
S25
   29    30     1     0     1 
SMALL
USER_CHARGES
@<TRIPOS>ATOM
  1 O1     -0.969000    0.411000   -0.049000 o     1 S25    -0.6091 ****
  2 C1      0.064000   -0.246000   -0.047000 c     1 S25     0.7721 ****
  3 N1      1.044000   -0.173000    0.933000 ns    1 S25    -0.4621 ****
  4 N2      0.423000   -1.169000   -1.018000 ns    1 S25    -0.4611 ****
  5 C2      1.076000    0.736000    2.013000 ca    1 S25    -0.0097 ****
  6 C3     -0.368000   -1.599000   -2.102000 ca    1 S25     0.0586 ****
  7 C4      1.857000    0.433000    3.126000 ca    1 S25     0.3012 ****
  8 C5      0.405000    1.960000    2.017000 ca    1 S25    -0.1780 ****
  9 C6     -1.760000   -1.493000   -2.125000 ca    1 S25    -0.1550 ****
 10 C7      0.286000   -2.203000   -3.183000 ca    1 S25    -0.1550 ****
 11 N3      2.002000    1.238000    4.203000 nb    1 S25    -0.6140 ****
 12 C8      0.495000    2.814000    3.118000 ca    1 S25     0.0563 ****
 13 C9     -2.486000   -1.964000   -3.223000 ca    1 S25    -0.1090 ****
 14 C10    -0.440000   -2.674000   -4.280000 ca    1 S25    -0.1090 ****
 15 C11     1.323000    2.409000    4.164000 ca    1 S25     0.3082 ****
 16 N4     -0.128000    4.052000    3.106000 nv    1 S25    -0.8162 ****
 17 C12    -1.827000   -2.553000   -4.300000 ca    1 S25    -0.1480 ****
 18 H1      1.713000   -0.927000    0.956000 hn    1 S25     0.3125 ****
 19 H2      1.389000   -1.455000   -1.032000 hn    1 S25     0.3085 ****
 20 H3      2.412000   -0.498000    3.192000 h4    1 S25     0.0171 ****
 21 H4     -0.188000    2.267000    1.162000 ha    1 S25     0.1750 ****
 22 H5     -2.308000   -1.053000   -1.297000 ha    1 S25     0.1480 ****
 23 H6      1.368000   -2.306000   -3.193000 ha    1 S25     0.1480 ****
 24 H7     -3.570000   -1.871000   -3.231000 ha    1 S25     0.1345 ****
 25 H8      0.076000   -3.133000   -5.118000 ha    1 S25     0.1345 ****
 26 H9      1.468000    3.042000    5.034000 h4    1 S25     0.0231 ****
 27 H10    -0.805000    4.256000    2.381000 hn    1 S25     0.3988 ****
 28 H11    -0.155000    4.616000    3.945000 hn    1 S25     0.3988 ****
 29 H12    -2.396000   -2.917000   -5.152000 ha    1 S25     0.1340 ****
@<TRIPOS>BOND
    1     1     2 1
    2     2     3 1
    3     2     4 1
    4     3     5 1
    5     3    18 1
    6     4     6 1
    7     4    19 1
    8     5     7 1
    9     5     8 1
   10     6     9 1
   11     6    10 1
   12     7    11 1
   13     7    20 1
   14     8    12 1
   15     8    21 1
   16     9    13 1
   17     9    22 1
   18    10    14 1
   19    10    23 1
   20    11    15 1
   21    12    16 1
   22    12    15 1
   23    13    17 1
   24    13    24 1
   25    14    17 1
   26    14    25 1
   27    15    26 1
   28    16    27 1
   29    16    28 1
   30    17    29 1
@<TRIPOS>SUBSTRUCTURE
      1  S25              1 ****               0 ****  **** 
