@<TRIPOS>MOLECULE
S25
   29    30     1     0     0
SMALL
bcc


@<TRIPOS>ATOM
      1 O1          -0.9690     0.4110    -0.0490 o          1 S25      -0.609100
      2 C1           0.0640    -0.2460    -0.0470 c          1 S25       0.772100
      3 N1           1.0440    -0.1730     0.9330 ns         1 S25      -0.462100
      4 N2           0.4230    -1.1690    -1.0180 ns         1 S25      -0.461100
      5 C2           1.0760     0.7360     2.0130 ca         1 S25      -0.009700
      6 C3          -0.3680    -1.5990    -2.1020 ca         1 S25       0.058600
      7 C4           1.8570     0.4330     3.1260 ca         1 S25       0.301200
      8 C5           0.4050     1.9600     2.0170 ca         1 S25      -0.178000
      9 C6          -1.7600    -1.4930    -2.1250 ca         1 S25      -0.155000
     10 C7           0.2860    -2.2030    -3.1830 ca         1 S25      -0.155000
     11 N3           2.0020     1.2380     4.2030 nb         1 S25      -0.614000
     12 C8           0.4950     2.8140     3.1180 ca         1 S25       0.056300
     13 C9          -2.4860    -1.9640    -3.2230 ca         1 S25      -0.109000
     14 C10         -0.4400    -2.6740    -4.2800 ca         1 S25      -0.109000
     15 C11          1.3230     2.4090     4.1640 ca         1 S25       0.308200
     16 N4          -0.1280     4.0520     3.1060 nv         1 S25      -0.816200
     17 C12         -1.8270    -2.5530    -4.3000 ca         1 S25      -0.148000
     18 H1           1.7130    -0.9270     0.9560 hn         1 S25       0.312500
     19 H2           1.3890    -1.4550    -1.0320 hn         1 S25       0.308500
     20 H3           2.4120    -0.4980     3.1920 h4         1 S25       0.017100
     21 H4          -0.1880     2.2670     1.1620 ha         1 S25       0.175000
     22 H5          -2.3080    -1.0530    -1.2970 ha         1 S25       0.148000
     23 H6           1.3680    -2.3060    -3.1930 ha         1 S25       0.148000
     24 H7          -3.5700    -1.8710    -3.2310 ha         1 S25       0.134500
     25 H8           0.0760    -3.1330    -5.1180 ha         1 S25       0.134500
     26 H9           1.4680     3.0420     5.0340 h4         1 S25       0.023100
     27 H10         -0.8050     4.2560     2.3810 hn         1 S25       0.398800
     28 H11         -0.1550     4.6160     3.9450 hn         1 S25       0.398800
     29 H12         -2.3960    -2.9170    -5.1520 ha         1 S25       0.134000
@<TRIPOS>BOND
     1     1     2 2   
     2     2     3 1   
     3     2     4 1   
     4     3     5 1   
     5     3    18 1   
     6     4     6 1   
     7     4    19 1   
     8     5     7 ar  
     9     5     8 ar  
    10     6     9 ar  
    11     6    10 ar  
    12     7    11 ar  
    13     7    20 1   
    14     8    12 ar  
    15     8    21 1   
    16     9    13 ar  
    17     9    22 1   
    18    10    14 ar  
    19    10    23 1   
    20    11    15 ar  
    21    12    16 1   
    22    12    15 ar  
    23    13    17 ar  
    24    13    24 1   
    25    14    17 ar  
    26    14    25 1   
    27    15    26 1   
    28    16    27 1   
    29    16    28 1   
    30    17    29 1   
@<TRIPOS>SUBSTRUCTURE
     1 S25         1 TEMP              0 ****  ****    0 ROOT
