@<TRIPOS>MOLECULE
S37
   36    37     1     0     0
SMALL
bcc


@<TRIPOS>ATOM
      1 O1          -0.3710     0.4450    -1.1760 o          1 S37      -0.590100
      2 C1          -0.5760     0.5660     0.0260 c          1 S37       0.668100
      3 N1          -1.8150     0.6810     0.6360 ns         1 S37      -0.467100
      4 C2           0.5560     0.6520     1.0430 c3         1 S37      -0.151400
      5 C3          -3.0780     0.6320     0.0060 ca         1 S37      -0.004700
      6 C4           1.9300     0.2540     0.4790 c3         1 S37      -0.061700
      7 C5          -4.2050     1.0010     0.7400 ca         1 S37       0.295200
      8 C6          -3.2870     0.2070    -1.3070 ca         1 S37      -0.197000
      9 C7           3.0430     0.7000     1.4420 c3         1 S37      -0.076400
     10 C8           2.0160    -1.2620     0.2330 c3         1 S37      -0.076400
     11 N2          -5.4720     0.9760     0.2690 nb         1 S37      -0.612000
     12 C9          -4.5740     0.1890    -1.8520 ca         1 S37       0.060300
     13 C10          4.4250     0.2820     0.9440 c3         1 S37      -0.075900
     14 C11          3.3990    -1.6770    -0.2650 c3         1 S37      -0.075900
     15 C12         -5.6210     0.5640    -1.0120 ca         1 S37       0.301200
     16 N3          -4.7900    -0.2760    -3.1390 nv         1 S37      -0.817200
     17 C13          4.5000    -1.2180     0.6850 c3         1 S37      -0.078400
     18 H1          -1.8200     0.8540     1.6330 hn         1 S37       0.319500
     19 H2           0.5850     1.6940     1.3860 hc         1 S37       0.069200
     20 H3           0.3090     0.0290     1.9110 hc         1 S37       0.069200
     21 H4           2.0870     0.7690    -0.4780 hc         1 S37       0.070700
     22 H5          -4.1240     1.3390     1.7680 h4         1 S37       0.017100
     23 H6          -2.4590    -0.1220    -1.9240 ha         1 S37       0.178000
     24 H7           2.8720     0.2680     2.4360 hc         1 S37       0.040950
     25 H8           3.0200     1.7900     1.5610 hc         1 S37       0.040950
     26 H9           1.2660    -1.5750    -0.5020 hc         1 S37       0.040950
     27 H10          1.7910    -1.8030     1.1620 hc         1 S37       0.040950
     28 H11          5.1840     0.5670     1.6820 hc         1 S37       0.043200
     29 H12          4.6590     0.8250     0.0200 hc         1 S37       0.043200
     30 H13          3.5710    -1.2490    -1.2600 hc         1 S37       0.043200
     31 H14          3.4380    -2.7670    -0.3750 hc         1 S37       0.043200
     32 H15         -6.6490     0.5400    -1.3610 h4         1 S37       0.022100
     33 H16         -5.7030    -0.1960    -3.5670 hn         1 S37       0.398300
     34 H17         -3.9980    -0.4490    -3.7450 hn         1 S37       0.398300
     35 H18          4.4110    -1.7580     1.6360 hc         1 S37       0.041200
     36 H19          5.4800    -1.4720     0.2650 hc         1 S37       0.041200
@<TRIPOS>BOND
     1     1     2 2   
     2     2     3 1   
     3     2     4 1   
     4     3     5 1   
     5     3    18 1   
     6     4     6 1   
     7     4    19 1   
     8     4    20 1   
     9     5     7 ar  
    10     5     8 ar  
    11     6     9 1   
    12     6    10 1   
    13     6    21 1   
    14     7    11 ar  
    15     7    22 1   
    16     8    12 ar  
    17     8    23 1   
    18     9    13 1   
    19     9    24 1   
    20     9    25 1   
    21    10    14 1   
    22    10    26 1   
    23    10    27 1   
    24    11    15 ar  
    25    12    16 1   
    26    12    15 ar  
    27    13    17 1   
    28    13    28 1   
    29    13    29 1   
    30    14    17 1   
    31    14    30 1   
    32    14    31 1   
    33    15    32 1   
    34    16    33 1   
    35    16    34 1   
    36    17    35 1   
    37    17    36 1   
@<TRIPOS>SUBSTRUCTURE
     1 S37         1 TEMP              0 ****  ****    0 ROOT
