@<TRIPOS>MOLECULE
S26
   32    33     1     0     0
SMALL
bcc


@<TRIPOS>ATOM
      1 O1           0.0160     1.0430    -0.2210 o          1 S26      -0.610100
      2 C1           0.8400     0.2240     0.1650 c          1 S26       0.771100
      3 N1           0.5290    -0.9910     0.7570 ns         1 S26      -0.462100
      4 N2           2.2160     0.3760     0.0740 ns         1 S26      -0.461100
      5 C2          -0.7630    -1.5390     0.9150 ca         1 S26      -0.012700
      6 C3           2.9080     1.5240    -0.3620 ca         1 S26       0.058600
      7 C4          -0.9590    -2.5390     1.8630 ca         1 S26       0.302200
      8 C5          -1.8630    -1.1730     0.1380 ca         1 S26      -0.177000
      9 C6           2.3490     2.8030    -0.3580 ca         1 S26      -0.155500
     10 C7           4.2370     1.3630    -0.7730 ca         1 S26      -0.155500
     11 N3          -2.1370    -3.1620     2.0830 nb         1 S26      -0.616000
     12 C8          -3.1160    -1.7730     0.3260 ca         1 S26       0.062300
     13 C9           3.1010     3.9040    -0.7790 ca         1 S26      -0.109000
     14 C10          4.9880     2.4630    -1.1940 ca         1 S26      -0.109000
     15 C11         -3.1770    -2.7600     1.3110 ca         1 S26       0.312200
     16 N4          -4.1790    -1.3850    -0.4660 nu         1 S26      -0.729600
     17 C12          4.4190     3.7340    -1.1980 ca         1 S26      -0.149000
     18 C13         -5.5080    -1.9370    -0.3560 c3         1 S26       0.176100
     19 H1           1.2790    -1.4570     1.2440 hn         1 S26       0.312500
     20 H2           2.7700    -0.4570     0.1960 hn         1 S26       0.307500
     21 H3          -0.1500    -2.8820     2.5000 h4         1 S26       0.017100
     22 H4          -1.7610    -0.4170    -0.6350 ha         1 S26       0.174000
     23 H5           1.3300     2.9740    -0.0250 ha         1 S26       0.148000
     24 H6           4.7030     0.3820    -0.7820 ha         1 S26       0.148000
     25 H7           2.6530     4.8940    -0.7770 ha         1 S26       0.134500
     26 H8           6.0160     2.3280    -1.5190 ha         1 S26       0.134500
     27 H9          -4.1030    -3.2850     1.5220 h4         1 S26       0.025100
     28 H10         -4.0370    -0.6170    -1.1140 hn         1 S26       0.407800
     29 H11          5.0000     4.5920    -1.5260 ha         1 S26       0.134000
     30 H12         -5.5060    -3.0130    -0.5590 h1         1 S26       0.039700
     31 H13         -5.9300    -1.7560     0.6380 h1         1 S26       0.039700
     32 H14         -6.1650    -1.4610    -1.0890 h1         1 S26       0.039700
@<TRIPOS>BOND
     1     1     2 2   
     2     2     3 1   
     3     2     4 1   
     4     3     5 1   
     5     3    19 1   
     6     4     6 1   
     7     4    20 1   
     8     5     7 ar  
     9     5     8 ar  
    10     6     9 ar  
    11     6    10 ar  
    12     7    11 ar  
    13     7    21 1   
    14     8    12 ar  
    15     8    22 1   
    16     9    13 ar  
    17     9    23 1   
    18    10    14 ar  
    19    10    24 1   
    20    11    15 ar  
    21    12    16 1   
    22    12    15 ar  
    23    13    17 ar  
    24    13    25 1   
    25    14    17 ar  
    26    14    26 1   
    27    15    27 1   
    28    16    18 1   
    29    16    28 1   
    30    17    29 1   
    31    18    30 1   
    32    18    31 1   
    33    18    32 1   
@<TRIPOS>SUBSTRUCTURE
     1 S26         1 TEMP              0 ****  ****    0 ROOT
