@<TRIPOS>MOLECULE
S34
   30    32     1     0     1 
SMALL
USER_CHARGES
@<TRIPOS>ATOM
  1 O1     -1.064000   -0.445000    1.195000 o     1 S34    -0.6001 ****
  2 C1     -0.301000    0.134000    0.433000 c     1 S34     0.7731 ****
  3 N1      0.619000   -0.504000   -0.383000 ns    1 S34    -0.4601 ****
  4 N2     -0.231000    1.508000    0.263000 ns    1 S34    -0.4601 ****
  5 C2      0.893000   -1.888000   -0.403000 ca    1 S34     0.0243 ****
  6 C3     -1.082000    2.472000    0.841000 ca    1 S34     0.0566 ****
  7 C4      1.604000   -2.451000   -1.479000 ca    1 S34    -0.2399 ****
  8 C5      0.547000   -2.789000    0.606000 ca    1 S34     0.3442 ****
  9 C6     -0.629000    3.797000    0.877000 ca    1 S34    -0.1545 ****
 10 C7     -2.355000    2.177000    1.332000 ca    1 S34    -0.1545 ****
 11 C8      1.893000   -3.812000   -1.470000 ca    1 S34    -0.1455 ****
 12 C9      2.166000   -1.995000   -2.695000 cc    1 S34     0.3338 ****
 13 N3      0.837000   -4.119000    0.607000 nb    1 S34    -0.6190 ****
 14 C10    -1.431000    4.807000    1.414000 ca    1 S34    -0.1085 ****
 15 C11    -3.157000    3.188000    1.870000 ca    1 S34    -0.1085 ****
 16 N4      2.575000   -4.056000   -2.630000 na    1 S34    -0.0111 ****
 17 C12     1.511000   -4.649000   -0.436000 ca    1 S34     0.3712 ****
 18 N5      2.762000   -2.965000   -3.393000 nd    1 S34    -0.4951 ****
 19 C13    -2.695000    4.502000    1.912000 ca    1 S34    -0.1470 ****
 20 H1      1.044000    0.051000   -1.109000 hn    1 S34     0.3145 ****
 21 H2      0.583000    1.865000   -0.213000 hn    1 S34     0.3075 ****
 22 H3      0.015000   -2.469000    1.498000 h4    1 S34     0.0651 ****
 23 H4      0.354000    4.061000    0.497000 ha    1 S34     0.1485 ****
 24 H5     -2.754000    1.167000    1.302000 ha    1 S34     0.1485 ****
 25 H6      2.166000   -0.994000   -3.104000 h4    1 S34     0.0508 ****
 26 H7     -1.068000    5.831000    1.445000 ha    1 S34     0.1350 ****
 27 H8     -4.144000    2.945000    2.254000 ha    1 S34     0.1350 ****
 28 H9      2.943000   -4.942000   -2.960000 hn    1 S34     0.3317 ****
 29 H10     1.720000   -5.711000   -0.403000 h4    1 S34     0.0301 ****
 30 H11    -3.321000    5.285000    2.333000 ha    1 S34     0.1350 ****
@<TRIPOS>BOND
    1     1     2 1
    2     2     3 1
    3     2     4 1
    4     3     5 1
    5     3    20 1
    6     4     6 1
    7     4    21 1
    8     5     7 1
    9     5     8 1
   10     6     9 1
   11     6    10 1
   12     7    11 1
   13     7    12 1
   14     8    13 1
   15     8    22 1
   16     9    14 1
   17     9    23 1
   18    10    15 1
   19    10    24 1
   20    11    16 1
   21    11    17 1
   22    12    18 1
   23    12    25 1
   24    13    17 1
   25    14    19 1
   26    14    26 1
   27    15    19 1
   28    15    27 1
   29    16    18 1
   30    16    28 1
   31    17    29 1
   32    19    30 1
@<TRIPOS>SUBSTRUCTURE
      1  S34              1 ****               0 ****  **** 
