@<TRIPOS>MOLECULE
S44
   37    39     1     0     1 
SMALL
USER_CHARGES
@<TRIPOS>ATOM
  1 O1     -0.213000   -0.098000    1.734000 o     1 S44    -0.5701 ****
  2 C1     -0.314000    0.340000    0.595000 c     1 S44     0.6731 ****
  3 N1     -0.192000    1.672000    0.224000 ns    1 S44    -0.4821 ****
  4 C2     -0.632000   -0.549000   -0.601000 c3    1 S44    -0.1484 ****
  5 C3      0.089000    2.766000    1.030000 cc    1 S44     0.0010 ****
  6 C4     -0.527000   -2.054000   -0.303000 c3    1 S44    -0.0627 ****
  7 N2      0.160000    4.041000    0.446000 na    1 S44    -0.0003 ****
  8 C5      0.308000    2.716000    2.367000 cd    1 S44     0.3352 ****
  9 C6     -1.200000   -2.862000   -1.425000 c3    1 S44    -0.0759 ****
 10 C7      0.940000   -2.490000   -0.140000 c3    1 S44    -0.0759 ****
 11 C8      0.437000    5.150000    1.207000 cc    1 S44    -0.1386 ****
 12 C9      0.004000    4.495000   -0.843000 cc    1 S44    -0.2341 ****
 13 N3      0.591000    3.811000    3.177000 nd    1 S44    -0.6300 ****
 14 C10    -1.077000   -4.366000   -1.194000 c3    1 S44    -0.0764 ****
 15 C11     1.060000   -3.995000    0.091000 c3    1 S44    -0.0764 ****
 16 N4      0.467000    6.261000    0.506000 nd    1 S44    -0.2646 ****
 17 C12     0.652000    4.985000    2.613000 cc    1 S44     0.4352 ****
 18 C13     0.197000    5.859000   -0.777000 cd    1 S44     0.0166 ****
 19 C14     0.376000   -4.791000   -1.015000 c3    1 S44    -0.0784 ****
 20 H1     -0.329000    1.865000   -0.760000 hn    1 S44     0.3255 ****
 21 H2      0.030000   -0.282000   -1.434000 hc    1 S44     0.0722 ****
 22 H3     -1.658000   -0.304000   -0.906000 hc    1 S44     0.0722 ****
 23 H4     -1.058000   -2.271000    0.634000 hc    1 S44     0.0717 ****
 24 H5      0.277000    1.778000    2.915000 h4    1 S44     0.0711 ****
 25 H6     -2.261000   -2.595000   -1.492000 hc    1 S44     0.0407 ****
 26 H7     -0.746000   -2.606000   -2.392000 hc    1 S44     0.0407 ****
 27 H8      1.511000   -2.219000   -1.038000 hc    1 S44     0.0407 ****
 28 H9      1.406000   -1.965000    0.701000 hc    1 S44     0.0407 ****
 29 H10    -0.224000    3.848000   -1.675000 h4    1 S44     0.1780 ****
 30 H11    -1.517000   -4.905000   -2.040000 hc    1 S44     0.0445 ****
 31 H12    -1.652000   -4.646000   -0.303000 hc    1 S44     0.0445 ****
 32 H13     0.610000   -4.252000    1.058000 hc    1 S44     0.0445 ****
 33 H14     2.117000   -4.276000    0.147000 hc    1 S44     0.0445 ****
 34 H15     0.874000    5.873000    3.225000 h4    1 S44     0.0541 ****
 35 H16     0.155000    6.574000   -1.590000 h4    1 S44     0.1850 ****
 36 H17     0.422000   -5.861000   -0.783000 hc    1 S44     0.0422 ****
 37 H18     0.918000   -4.645000   -1.958000 hc    1 S44     0.0422 ****
@<TRIPOS>BOND
    1     1     2 1
    2     2     3 1
    3     2     4 1
    4     3     5 1
    5     3    20 1
    6     4     6 1
    7     4    21 1
    8     4    22 1
    9     5     7 1
   10     5     8 1
   11     6     9 1
   12     6    10 1
   13     6    23 1
   14     7    11 1
   15     7    12 1
   16     8    13 1
   17     8    24 1
   18     9    14 1
   19     9    25 1
   20     9    26 1
   21    10    15 1
   22    10    27 1
   23    10    28 1
   24    11    16 1
   25    11    17 1
   26    12    18 1
   27    12    29 1
   28    13    17 1
   29    14    19 1
   30    14    30 1
   31    14    31 1
   32    15    19 1
   33    15    32 1
   34    15    33 1
   35    16    18 1
   36    17    34 1
   37    18    35 1
   38    19    36 1
   39    19    37 1
@<TRIPOS>SUBSTRUCTURE
      1  S44              1 ****               0 ****  **** 
