@<TRIPOS>MOLECULE
S41
   39    41     1     0     0
SMALL
bcc


@<TRIPOS>ATOM
      1 O1          -1.7120     1.9460    -0.0370 o          1 S41      -0.580100
      2 C1          -0.9920     1.0650    -0.4940 c          1 S41       0.666100
      3 N1          -1.1690    -0.2940    -0.3170 ns         1 S41      -0.470100
      4 C2           0.2310     1.4060    -1.3280 c3         1 S41      -0.150400
      5 C3          -2.1950    -0.8980     0.4540 ca         1 S41      -0.029700
      6 C4           1.3690     1.9650    -0.4600 c3         1 S41      -0.062700
      7 C5          -2.6160    -2.2280     0.1660 ca         1 S41      -0.151300
      8 C6          -2.7740    -0.2510     1.5450 ca         1 S41       0.357200
      9 C7           2.4530     2.5870    -1.3550 c3         1 S41      -0.075900
     10 C8           1.9760     0.8810     0.4470 c3         1 S41      -0.075900
     11 C9          -3.5860    -2.8360     0.9920 ca         1 S41       0.292300
     12 C10         -2.1470    -3.0080    -0.9170 ca         1 S41      -0.091000
     13 N2          -3.7020    -0.8100     2.3500 nb         1 S41      -0.635000
     14 C11          3.6300     3.1160    -0.5400 c3         1 S41      -0.075900
     15 C12          3.1580     1.4130     1.2560 c3         1 S41      -0.075900
     16 N3          -4.0410    -4.0940     0.7990 nb         1 S41      -0.639000
     17 C13         -4.0720    -2.0770     2.0430 ca         1 S41       0.346900
     18 C14         -2.6160    -4.3030    -1.1230 ca         1 S41      -0.236300
     19 C15          4.2220     2.0360     0.3590 c3         1 S41      -0.078400
     20 C16         -3.5540    -4.7970    -0.2420 ca         1 S41       0.408200
     21 H1          -0.5270    -0.9160    -0.7880 hn         1 S41       0.316500
     22 H2          -0.0900     2.1540    -2.0640 hc         1 S41       0.070200
     23 H3           0.5710     0.5330    -1.8980 hc         1 S41       0.070200
     24 H4           0.9630     2.7580     0.1850 hc         1 S41       0.071700
     25 H5          -2.4890     0.7550     1.8380 h4         1 S41       0.064100
     26 H6           2.8170     1.8390    -2.0710 hc         1 S41       0.040450
     27 H7           2.0260     3.4080    -1.9430 hc         1 S41       0.040450
     28 H8           1.2210     0.4990     1.1430 hc         1 S41       0.040450
     29 H9           2.3100     0.0310    -0.1610 hc         1 S41       0.040450
     30 H10         -1.4260    -2.6150    -1.6270 ha         1 S41       0.130000
     31 H11          4.4040     3.4970    -1.2160 hc         1 S41       0.043700
     32 H12          3.2980     3.9620     0.0740 hc         1 S41       0.043700
     33 H13          3.6000     0.5990     1.8400 hc         1 S41       0.043700
     34 H14          2.8000     2.1630     1.9730 hc         1 S41       0.043700
     35 H15         -4.8220    -2.5020     2.7060 h4         1 S41       0.042100
     36 H16         -2.2630    -4.9040    -1.9520 ha         1 S41       0.147000
     37 H17          5.0200     2.4650     0.9760 hc         1 S41       0.041200
     38 H18          4.6800     1.2560    -0.2600 hc         1 S41       0.041200
     39 H19         -3.9560    -5.8000    -0.3530 h4         1 S41       0.028100
@<TRIPOS>BOND
     1     1     2 2   
     2     2     3 1   
     3     2     4 1   
     4     3     5 1   
     5     3    21 1   
     6     4     6 1   
     7     4    22 1   
     8     4    23 1   
     9     5     7 ar  
    10     5     8 ar  
    11     6     9 1   
    12     6    10 1   
    13     6    24 1   
    14     7    11 ar  
    15     7    12 ar  
    16     8    13 ar  
    17     8    25 1   
    18     9    14 1   
    19     9    26 1   
    20     9    27 1   
    21    10    15 1   
    22    10    28 1   
    23    10    29 1   
    24    11    16 ar  
    25    11    17 ar  
    26    12    18 ar  
    27    12    30 1   
    28    13    17 ar  
    29    14    19 1   
    30    14    31 1   
    31    14    32 1   
    32    15    19 1   
    33    15    33 1   
    34    15    34 1   
    35    16    20 ar  
    36    17    35 1   
    37    18    20 ar  
    38    18    36 1   
    39    19    37 1   
    40    19    38 1   
    41    20    39 1   
@<TRIPOS>SUBSTRUCTURE
     1 S41         1 TEMP              0 ****  ****    0 ROOT
