@<TRIPOS>MOLECULE
S26
   32    33     1     0     1 
SMALL
USER_CHARGES
@<TRIPOS>ATOM
  1 O1      0.016000    1.043000   -0.221000 o     1 S26    -0.6101 ****
  2 C1      0.840000    0.224000    0.165000 c     1 S26     0.7711 ****
  3 N1      0.529000   -0.991000    0.757000 ns    1 S26    -0.4621 ****
  4 N2      2.216000    0.376000    0.074000 ns    1 S26    -0.4611 ****
  5 C2     -0.763000   -1.539000    0.915000 ca    1 S26    -0.0127 ****
  6 C3      2.908000    1.524000   -0.362000 ca    1 S26     0.0586 ****
  7 C4     -0.959000   -2.539000    1.863000 ca    1 S26     0.3022 ****
  8 C5     -1.863000   -1.173000    0.138000 ca    1 S26    -0.1770 ****
  9 C6      2.349000    2.803000   -0.358000 ca    1 S26    -0.1555 ****
 10 C7      4.237000    1.363000   -0.773000 ca    1 S26    -0.1555 ****
 11 N3     -2.137000   -3.162000    2.083000 nb    1 S26    -0.6160 ****
 12 C8     -3.116000   -1.773000    0.326000 ca    1 S26     0.0623 ****
 13 C9      3.101000    3.904000   -0.779000 ca    1 S26    -0.1090 ****
 14 C10     4.988000    2.463000   -1.194000 ca    1 S26    -0.1090 ****
 15 C11    -3.177000   -2.760000    1.311000 ca    1 S26     0.3122 ****
 16 N4     -4.179000   -1.385000   -0.466000 nu    1 S26    -0.7296 ****
 17 C12     4.419000    3.734000   -1.198000 ca    1 S26    -0.1490 ****
 18 C13    -5.508000   -1.937000   -0.356000 c3    1 S26     0.1761 ****
 19 H1      1.279000   -1.457000    1.244000 hn    1 S26     0.3125 ****
 20 H2      2.770000   -0.457000    0.196000 hn    1 S26     0.3075 ****
 21 H3     -0.150000   -2.882000    2.500000 h4    1 S26     0.0171 ****
 22 H4     -1.761000   -0.417000   -0.635000 ha    1 S26     0.1740 ****
 23 H5      1.330000    2.974000   -0.025000 ha    1 S26     0.1480 ****
 24 H6      4.703000    0.382000   -0.782000 ha    1 S26     0.1480 ****
 25 H7      2.653000    4.894000   -0.777000 ha    1 S26     0.1345 ****
 26 H8      6.016000    2.328000   -1.519000 ha    1 S26     0.1345 ****
 27 H9     -4.103000   -3.285000    1.522000 h4    1 S26     0.0251 ****
 28 H10    -4.037000   -0.617000   -1.114000 hn    1 S26     0.4078 ****
 29 H11     5.000000    4.592000   -1.526000 ha    1 S26     0.1340 ****
 30 H12    -5.506000   -3.013000   -0.559000 h1    1 S26     0.0397 ****
 31 H13    -5.930000   -1.756000    0.638000 h1    1 S26     0.0397 ****
 32 H14    -6.165000   -1.461000   -1.089000 h1    1 S26     0.0397 ****
@<TRIPOS>BOND
    1     1     2 1
    2     2     3 1
    3     2     4 1
    4     3     5 1
    5     3    19 1
    6     4     6 1
    7     4    20 1
    8     5     7 1
    9     5     8 1
   10     6     9 1
   11     6    10 1
   12     7    11 1
   13     7    21 1
   14     8    12 1
   15     8    22 1
   16     9    13 1
   17     9    23 1
   18    10    14 1
   19    10    24 1
   20    11    15 1
   21    12    16 1
   22    12    15 1
   23    13    17 1
   24    13    25 1
   25    14    17 1
   26    14    26 1
   27    15    27 1
   28    16    18 1
   29    16    28 1
   30    17    29 1
   31    18    30 1
   32    18    31 1
   33    18    32 1
@<TRIPOS>SUBSTRUCTURE
      1  S26              1 ****               0 ****  **** 
