@<TRIPOS>MOLECULE
S35
   33    35     1     0     1 
SMALL
USER_CHARGES
@<TRIPOS>ATOM
  1 O1      1.051000    0.388000   -0.193000 o     1 S35    -0.5971 ****
  2 C1      0.028000    0.480000    0.471000 c     1 S35     0.7541 ****
  3 N1     -0.693000   -0.588000    0.977000 ns    1 S35    -0.4671 ****
  4 N2     -0.571000    1.675000    0.847000 ns    1 S35    -0.4591 ****
  5 C2     -0.574000   -1.935000    0.669000 cc    1 S35     0.0453 ****
  6 C3     -0.064000    2.972000    0.635000 ca    1 S35     0.0526 ****
  7 N3     -0.144000   -2.527000   -0.565000 na    1 S35    -0.2139 ****
  8 C4     -0.928000   -2.780000    1.677000 cd    1 S35    -0.1413 ****
  9 C5     -0.968000    4.040000    0.692000 ca    1 S35    -0.1545 ****
 10 C6      1.290000    3.240000    0.420000 ca    1 S35    -0.1545 ****
 11 C7      0.040000   -3.952000   -0.640000 cc    1 S35     0.4558 ****
 12 C8      0.023000   -1.849000   -1.766000 cc    1 S35     0.0467 ****
 13 N4     -0.817000   -4.147000    1.579000 na    1 S35    -0.1951 ****
 14 C9     -0.527000    5.354000    0.515000 ca    1 S35    -0.1085 ****
 15 C10     1.731000    4.554000    0.243000 ca    1 S35    -0.1085 ****
 16 N5      0.522000   -4.623000   -1.751000 nc    1 S35    -0.6840 ****
 17 C11    -0.305000   -4.703000    0.432000 cd    1 S35    -0.2476 ****
 18 C12     0.443000   -2.423000   -2.898000 cd    1 S35    -0.3923 ****
 19 C13     0.823000    5.611000    0.288000 ca    1 S35    -0.1470 ****
 20 C14     0.713000   -3.872000   -2.789000 cd    1 S35     0.4712 ****
 21 H1     -1.190000   -0.373000    1.827000 hn    1 S35     0.3105 ****
 22 H2     -1.528000    1.612000    1.156000 hn    1 S35     0.3075 ****
 23 H3     -1.275000   -2.447000    2.649000 h4    1 S35     0.1580 ****
 24 H4     -2.026000    3.866000    0.865000 ha    1 S35     0.1490 ****
 25 H5      2.026000    2.442000    0.392000 ha    1 S35     0.1490 ****
 26 H6     -0.233000   -0.799000   -1.760000 h4    1 S35     0.1740 ****
 27 H7     -1.043000   -4.743000    2.365000 hn    1 S35     0.2327 ****
 28 H8     -1.236000    6.176000    0.553000 ha    1 S35     0.1355 ****
 29 H9      2.786000    4.749000    0.071000 ha    1 S35     0.1355 ****
 30 H10    -0.203000   -5.782000    0.435000 h4    1 S35     0.1790 ****
 31 H11     0.574000   -1.907000   -3.835000 ha    1 S35     0.1550 ****
 32 H12     1.170000    6.631000    0.149000 ha    1 S35     0.1350 ****
 33 H13     1.104000   -4.339000   -3.708000 h4    1 S35     0.0231 ****
@<TRIPOS>BOND
    1     1     2 1
    2     2     3 1
    3     2     4 1
    4     3     5 1
    5     3    21 1
    6     4     6 1
    7     4    22 1
    8     5     7 1
    9     5     8 1
   10     6     9 1
   11     6    10 1
   12     7    11 1
   13     7    12 1
   14     8    13 1
   15     8    23 1
   16     9    14 1
   17     9    24 1
   18    10    15 1
   19    10    25 1
   20    11    16 1
   21    11    17 1
   22    12    18 1
   23    12    26 1
   24    13    17 1
   25    13    27 1
   26    14    19 1
   27    14    28 1
   28    15    19 1
   29    15    29 1
   30    16    20 1
   31    17    30 1
   32    18    20 1
   33    18    31 1
   34    19    32 1
   35    20    33 1
@<TRIPOS>SUBSTRUCTURE
      1  S35              1 ****               0 ****  **** 
