@<TRIPOS>MOLECULE
S41
   39    41     1     0     1 
SMALL
USER_CHARGES
@<TRIPOS>ATOM
  1 O1     -1.712000    1.946000   -0.037000 o     1 S41    -0.5801 ****
  2 C1     -0.992000    1.065000   -0.494000 c     1 S41     0.6661 ****
  3 N1     -1.169000   -0.294000   -0.317000 ns    1 S41    -0.4701 ****
  4 C2      0.231000    1.406000   -1.328000 c3    1 S41    -0.1504 ****
  5 C3     -2.195000   -0.898000    0.454000 ca    1 S41    -0.0297 ****
  6 C4      1.369000    1.965000   -0.460000 c3    1 S41    -0.0627 ****
  7 C5     -2.616000   -2.228000    0.166000 ca    1 S41    -0.1513 ****
  8 C6     -2.774000   -0.251000    1.545000 ca    1 S41     0.3572 ****
  9 C7      2.453000    2.587000   -1.355000 c3    1 S41    -0.0759 ****
 10 C8      1.976000    0.881000    0.447000 c3    1 S41    -0.0759 ****
 11 C9     -3.586000   -2.836000    0.992000 ca    1 S41     0.2923 ****
 12 C10    -2.147000   -3.008000   -0.917000 ca    1 S41    -0.0910 ****
 13 N2     -3.702000   -0.810000    2.350000 nb    1 S41    -0.6350 ****
 14 C11     3.630000    3.116000   -0.540000 c3    1 S41    -0.0759 ****
 15 C12     3.158000    1.413000    1.256000 c3    1 S41    -0.0759 ****
 16 N3     -4.041000   -4.094000    0.799000 nb    1 S41    -0.6390 ****
 17 C13    -4.072000   -2.077000    2.043000 ca    1 S41     0.3469 ****
 18 C14    -2.616000   -4.303000   -1.123000 ca    1 S41    -0.2363 ****
 19 C15     4.222000    2.036000    0.359000 c3    1 S41    -0.0784 ****
 20 C16    -3.554000   -4.797000   -0.242000 ca    1 S41     0.4082 ****
 21 H1     -0.527000   -0.916000   -0.788000 hn    1 S41     0.3165 ****
 22 H2     -0.090000    2.154000   -2.064000 hc    1 S41     0.0702 ****
 23 H3      0.571000    0.533000   -1.898000 hc    1 S41     0.0702 ****
 24 H4      0.963000    2.758000    0.185000 hc    1 S41     0.0717 ****
 25 H5     -2.489000    0.755000    1.838000 h4    1 S41     0.0641 ****
 26 H6      2.817000    1.839000   -2.071000 hc    1 S41     0.0405 ****
 27 H7      2.026000    3.408000   -1.943000 hc    1 S41     0.0405 ****
 28 H8      1.221000    0.499000    1.143000 hc    1 S41     0.0405 ****
 29 H9      2.310000    0.031000   -0.161000 hc    1 S41     0.0405 ****
 30 H10    -1.426000   -2.615000   -1.627000 ha    1 S41     0.1300 ****
 31 H11     4.404000    3.497000   -1.216000 hc    1 S41     0.0437 ****
 32 H12     3.298000    3.962000    0.074000 hc    1 S41     0.0437 ****
 33 H13     3.600000    0.599000    1.840000 hc    1 S41     0.0437 ****
 34 H14     2.800000    2.163000    1.973000 hc    1 S41     0.0437 ****
 35 H15    -4.822000   -2.502000    2.706000 h4    1 S41     0.0421 ****
 36 H16    -2.263000   -4.904000   -1.952000 ha    1 S41     0.1470 ****
 37 H17     5.020000    2.465000    0.976000 hc    1 S41     0.0412 ****
 38 H18     4.680000    1.256000   -0.260000 hc    1 S41     0.0412 ****
 39 H19    -3.956000   -5.800000   -0.353000 h4    1 S41     0.0281 ****
@<TRIPOS>BOND
    1     1     2 1
    2     2     3 1
    3     2     4 1
    4     3     5 1
    5     3    21 1
    6     4     6 1
    7     4    22 1
    8     4    23 1
    9     5     7 1
   10     5     8 1
   11     6     9 1
   12     6    10 1
   13     6    24 1
   14     7    11 1
   15     7    12 1
   16     8    13 1
   17     8    25 1
   18     9    14 1
   19     9    26 1
   20     9    27 1
   21    10    15 1
   22    10    28 1
   23    10    29 1
   24    11    16 1
   25    11    17 1
   26    12    18 1
   27    12    30 1
   28    13    17 1
   29    14    19 1
   30    14    31 1
   31    14    32 1
   32    15    19 1
   33    15    33 1
   34    15    34 1
   35    16    20 1
   36    17    35 1
   37    18    20 1
   38    18    36 1
   39    19    37 1
   40    19    38 1
   41    20    39 1
@<TRIPOS>SUBSTRUCTURE
      1  S41              1 ****               0 ****  **** 
