@<TRIPOS>MOLECULE
S29
   32    34     1     0     0
SMALL
bcc


@<TRIPOS>ATOM
      1 O1          -0.5600    -0.8560    -0.3990 o          1 S29      -0.597100
      2 C1           0.5080    -0.4390     0.0310 c          1 S29       0.751100
      3 N1           0.6820     0.0430     1.3200 ns         1 S29      -0.450100
      4 N2           1.6940    -0.3640    -0.6780 ns         1 S29      -0.459100
      5 C2          -0.3740     0.1370     2.2560 ca         1 S29      -0.045700
      6 C3           1.9280    -0.8440    -1.9820 ca         1 S29       0.054600
      7 C4          -1.5280     0.9400     2.0600 ca         1 S29      -0.107300
      8 C5          -0.2390    -0.5510     3.4600 ca         1 S29       0.346200
      9 C6           3.0550    -0.3590    -2.6570 ca         1 S29      -0.155000
     10 C7           1.1230    -1.7980    -2.6060 ca         1 S29      -0.155000
     11 C8          -2.5060     0.9840     3.0750 ca         1 S29       0.282300
     12 C9          -1.7770     1.7370     0.9200 ca         1 S29      -0.055000
     13 N3          -1.1490    -0.5200     4.4520 nb         1 S29      -0.648000
     14 C10          3.3600    -0.8080    -3.9450 ca         1 S29      -0.108500
     15 C11          1.4280    -2.2470    -3.8950 ca         1 S29      -0.108500
     16 N4          -3.6360     1.7200     2.9850 nb         1 S29      -0.649000
     17 C12         -2.2510     0.2380     4.2160 ca         1 S29       0.369900
     18 C13         -2.9410     2.4920     0.8170 ca         1 S29      -0.242300
     19 C14          2.5440    -1.7510    -4.5640 ca         1 S29      -0.147000
     20 C15         -3.8340     2.4470     1.8660 ca         1 S29       0.415200
     21 H1           1.6210     0.0140     1.6910 hn         1 S29       0.300500
     22 H2           2.4230     0.2030    -0.2730 hn         1 S29       0.308500
     23 H3           0.6260    -1.1760     3.6620 h4         1 S29       0.022100
     24 H4           3.7070     0.3790    -2.1980 ha         1 S29       0.148500
     25 H5           0.2520    -2.2180    -2.1110 ha         1 S29       0.148500
     26 H6          -1.0710     1.7640     0.0950 ha         1 S29       0.158000
     27 H7           4.2320    -0.4210    -4.4640 ha         1 S29       0.135000
     28 H8           0.7900    -2.9870    -4.3720 ha         1 S29       0.135000
     29 H9          -2.9770     0.2420     5.0270 h4         1 S29       0.043100
     30 H10         -3.1430     3.0910    -0.0630 ha         1 S29       0.149000
     31 H11          2.7770    -2.1020    -5.5660 ha         1 S29       0.135000
     32 H12         -4.7610     3.0120     1.8380 h4         1 S29       0.026100
@<TRIPOS>BOND
     1     1     2 2   
     2     2     3 1   
     3     2     4 1   
     4     3     5 1   
     5     3    21 1   
     6     4     6 1   
     7     4    22 1   
     8     5     7 ar  
     9     5     8 ar  
    10     6     9 ar  
    11     6    10 ar  
    12     7    11 ar  
    13     7    12 ar  
    14     8    13 ar  
    15     8    23 1   
    16     9    14 ar  
    17     9    24 1   
    18    10    15 ar  
    19    10    25 1   
    20    11    16 ar  
    21    11    17 ar  
    22    12    18 ar  
    23    12    26 1   
    24    13    17 ar  
    25    14    19 ar  
    26    14    27 1   
    27    15    19 ar  
    28    15    28 1   
    29    16    20 ar  
    30    17    29 1   
    31    18    20 ar  
    32    18    30 1   
    33    19    31 1   
    34    20    32 1   
@<TRIPOS>SUBSTRUCTURE
     1 S29         1 TEMP              0 ****  ****    0 ROOT
