@<TRIPOS>MOLECULE
S43
   37    39     1     0     1 
SMALL
USER_CHARGES
@<TRIPOS>ATOM
  1 O1      1.718000   -0.271000    0.241000 o     1 S43    -0.5731 ****
  2 C1      0.817000    0.459000   -0.148000 c     1 S43     0.6631 ****
  3 N1      0.438000    1.669000    0.409000 ns    1 S43    -0.4731 ****
  4 C2      0.013000    0.151000   -1.408000 c3    1 S43    -0.1464 ****
  5 C3      0.827000    2.264000    1.591000 cc    1 S43    -0.0027 ****
  6 C4      0.143000   -1.310000   -1.881000 c3    1 S43    -0.0577 ****
  7 C5      1.448000    1.581000    2.676000 cc    1 S43    -0.0583 ****
  8 C6      0.573000    3.584000    1.768000 cd    1 S43     0.3192 ****
  9 C7     -0.551000   -2.303000   -0.932000 c3    1 S43    -0.0754 ****
 10 C8     -0.402000   -1.479000   -3.310000 c3    1 S43    -0.0754 ****
 11 N2      1.789000    2.375000    3.751000 na    1 S43     0.0342 ****
 12 C9      1.800000    0.305000    3.062000 cd    1 S43    -0.2836 ****
 13 N3      0.902000    4.355000    2.868000 nd    1 S43    -0.6680 ****
 14 C10    -2.076000   -2.241000   -1.002000 c3    1 S43    -0.0774 ****
 15 C11    -1.926000   -1.400000   -3.381000 c3    1 S43    -0.0774 ****
 16 N4      2.382000    1.711000    4.766000 nc    1 S43    -0.5521 ****
 17 C12     1.516000    3.736000    3.836000 cc    1 S43     0.5264 ****
 18 C13     2.386000    0.447000    4.337000 cd    1 S43     0.3645 ****
 19 C14    -2.583000   -2.397000   -2.433000 c3    1 S43    -0.0774 ****
 20 H1     -0.154000    2.240000   -0.184000 hn    1 S43     0.3185 ****
 21 H2      0.391000    0.824000   -2.188000 hc    1 S43     0.0672 ****
 22 H3     -1.036000    0.416000   -1.234000 hc    1 S43     0.0672 ****
 23 H4      1.211000   -1.563000   -1.908000 hc    1 S43     0.0757 ****
 24 H5      0.085000    4.154000    0.980000 h4    1 S43     0.0291 ****
 25 H6     -0.229000   -2.144000    0.103000 hc    1 S43     0.0455 ****
 26 H7     -0.233000   -3.320000   -1.198000 hc    1 S43     0.0455 ****
 27 H8     -0.083000   -2.456000   -3.696000 hc    1 S43     0.0455 ****
 28 H9      0.037000   -0.727000   -3.977000 hc    1 S43     0.0455 ****
 29 H10     1.668000   -0.617000    2.517000 ha    1 S43     0.1850 ****
 30 H11    -2.433000   -1.291000   -0.587000 hc    1 S43     0.0384 ****
 31 H12    -2.503000   -3.034000   -0.377000 hc    1 S43     0.0384 ****
 32 H13    -2.254000   -1.602000   -4.407000 hc    1 S43     0.0384 ****
 33 H14    -2.260000   -0.384000   -3.139000 hc    1 S43     0.0384 ****
 34 H15     1.823000    4.274000    4.747000 h5    1 S43     0.0721 ****
 35 H16     2.805000   -0.325000    4.971000 h4    1 S43     0.0548 ****
 36 H17    -2.379000   -3.417000   -2.780000 hc    1 S43     0.0417 ****
 37 H18    -3.671000   -2.266000   -2.455000 hc    1 S43     0.0417 ****
@<TRIPOS>BOND
    1     1     2 1
    2     2     3 1
    3     2     4 1
    4     3     5 1
    5     3    20 1
    6     4     6 1
    7     4    21 1
    8     4    22 1
    9     5     7 1
   10     5     8 1
   11     6     9 1
   12     6    10 1
   13     6    23 1
   14     7    11 1
   15     7    12 1
   16     8    13 1
   17     8    24 1
   18     9    14 1
   19     9    25 1
   20     9    26 1
   21    10    15 1
   22    10    27 1
   23    10    28 1
   24    11    16 1
   25    11    17 1
   26    12    18 1
   27    12    29 1
   28    13    17 1
   29    14    19 1
   30    14    30 1
   31    14    31 1
   32    15    19 1
   33    15    32 1
   34    15    33 1
   35    16    18 1
   36    17    34 1
   37    18    35 1
   38    19    36 1
   39    19    37 1
@<TRIPOS>SUBSTRUCTURE
      1  S43              1 ****               0 ****  **** 
