@<TRIPOS>MOLECULE
S47
   40    42     1     0     1 
SMALL
USER_CHARGES
@<TRIPOS>ATOM
  1 O1      2.093000   -2.341000    0.899000 o     1 S47    -0.5941 ****
  2 C1      1.260000   -1.667000    0.286000 c     1 S47     0.6621 ****
  3 N1      1.207000   -1.775000   -1.074000 ns    1 S47    -0.4851 ****
  4 C2      0.403000   -0.648000    1.020000 c3    1 S47    -0.1434 ****
  5 C3      0.294000   -1.287000   -1.982000 cc    1 S47     0.0023 ****
  6 C4      0.872000    0.800000    0.773000 c3    1 S47    -0.0507 ****
  7 N2     -1.127000   -1.316000   -1.856000 na    1 S47    -0.2379 ****
  8 C5      0.821000   -0.747000   -3.112000 cd    1 S47    -0.0853 ****
  9 C6      2.252000    1.095000    1.388000 c3    1 S47    -0.0764 ****
 10 C7     -0.164000    1.811000    1.297000 c3    1 S47    -0.0764 ****
 11 C8     -1.936000   -0.612000   -2.809000 cc    1 S47     0.4478 ****
 12 C9     -1.823000   -2.142000   -0.980000 cc    1 S47     0.0137 ****
 13 N3      0.039000   -0.136000   -4.066000 na    1 S47    -0.2091 ****
 14 C10     2.224000    1.179000    2.913000 c3    1 S47    -0.0764 ****
 15 C11    -0.203000    1.886000    2.822000 c3    1 S47    -0.0764 ****
 16 N4     -3.314000   -0.515000   -2.736000 nc    1 S47    -0.6750 ****
 17 C12    -1.321000   -0.048000   -3.877000 cd    1 S47    -0.2336 ****
 18 C13    -3.157000   -2.176000   -0.895000 cd    1 S47    -0.3783 ****
 19 C14     1.177000    2.174000    3.405000 c3    1 S47    -0.0784 ****
 20 C15    -3.856000   -1.257000   -1.822000 cd    1 S47     0.4672 ****
 21 H1      2.036000   -2.219000   -1.450000 hn    1 S47     0.3245 ****
 22 H2      0.436000   -0.900000    2.086000 hc    1 S47     0.0767 ****
 23 H3     -0.641000   -0.751000    0.733000 hc    1 S47     0.0767 ****
 24 H4      0.958000    0.955000   -0.310000 hc    1 S47     0.0437 ****
 25 H5      1.886000   -0.693000   -3.311000 h4    1 S47     0.1690 ****
 26 H6      2.986000    0.344000    1.074000 hc    1 S47     0.0455 ****
 27 H7      2.611000    2.054000    0.994000 hc    1 S47     0.0455 ****
 28 H8     -1.162000    1.566000    0.914000 hc    1 S47     0.0455 ****
 29 H9      0.083000    2.805000    0.902000 hc    1 S47     0.0455 ****
 30 H10    -1.211000   -2.798000   -0.370000 h4    1 S47     0.1580 ****
 31 H11     0.461000    0.296000   -4.878000 hn    1 S47     0.2417 ****
 32 H12     3.213000    1.481000    3.279000 hc    1 S47     0.0422 ****
 33 H13     2.023000    0.191000    3.341000 hc    1 S47     0.0422 ****
 34 H14    -0.587000    0.945000    3.233000 hc    1 S47     0.0422 ****
 35 H15    -0.901000    2.672000    3.131000 hc    1 S47     0.0422 ****
 36 H16    -1.871000    0.480000   -4.647000 h4    1 S47     0.1790 ****
 37 H17    -3.718000   -2.815000   -0.231000 ha    1 S47     0.1570 ****
 38 H18     1.129000    2.148000    4.499000 hc    1 S47     0.0402 ****
 39 H19     1.483000    3.190000    3.125000 hc    1 S47     0.0402 ****
 40 H20    -4.952000   -1.229000   -1.707000 h4    1 S47     0.0261 ****
@<TRIPOS>BOND
    1     1     2 1
    2     2     3 1
    3     2     4 1
    4     3     5 1
    5     3    21 1
    6     4     6 1
    7     4    22 1
    8     4    23 1
    9     5     7 1
   10     5     8 1
   11     6     9 1
   12     6    10 1
   13     6    24 1
   14     7    11 1
   15     7    12 1
   16     8    13 1
   17     8    25 1
   18     9    14 1
   19     9    26 1
   20     9    27 1
   21    10    15 1
   22    10    28 1
   23    10    29 1
   24    11    16 1
   25    11    17 1
   26    12    18 1
   27    12    30 1
   28    13    17 1
   29    13    31 1
   30    14    19 1
   31    14    32 1
   32    14    33 1
   33    15    19 1
   34    15    34 1
   35    15    35 1
   36    16    20 1
   37    17    36 1
   38    18    20 1
   39    18    37 1
   40    19    38 1
   41    19    39 1
   42    20    40 1
@<TRIPOS>SUBSTRUCTURE
      1  S47              1 ****               0 ****  **** 
