@<TRIPOS>MOLECULE
S46
   37    39     1     0     0
SMALL
bcc


@<TRIPOS>ATOM
      1 O1          -1.4050     0.0400     1.0150 o          1 S46      -0.584100
      2 C1          -0.9400     0.0430    -0.1180 c          1 S46       0.667100
      3 N1          -1.0410    -0.9970    -1.0260 ns         1 S46      -0.469100
      4 C2          -0.2210     1.2460    -0.7120 c3         1 S46      -0.148400
      5 C3          -1.6240    -2.2520    -0.7610 ca         1 S46       0.030300
      6 C4           0.2150     2.2830     0.3410 c3         1 S46      -0.057700
      7 C5          -1.5160    -2.9710     0.4430 ca         1 S46      -0.204900
      8 C6          -2.3140    -2.9080    -1.7830 ca         1 S46       0.301200
      9 C7           0.6240     3.6090    -0.3240 c3         1 S46      -0.077400
     10 C8           1.3570     1.7700     1.2380 c3         1 S46      -0.077400
     11 C9          -2.1070    -4.2310     0.5250 ca         1 S46      -0.151500
     12 C10         -0.9070    -2.8070     1.7110 cc         1 S46       0.382800
     13 N2          -2.8880    -4.1330    -1.6940 nb         1 S46      -0.619000
     14 C11          1.9600     3.5220    -1.0580 c3         1 S46      -0.076900
     15 C12          2.7020     1.6890     0.5160 c3         1 S46      -0.076900
     16 N3          -1.8390    -4.6880     1.7870 na         1 S46      -0.012100
     17 C13         -2.7980    -4.8090    -0.5280 ca         1 S46       0.365200
     18 N4          -1.0880    -3.8550     2.5220 nd         1 S46      -0.516100
     19 C14          3.0700     3.0130    -0.1440 c3         1 S46      -0.077400
     20 H1          -0.7810    -0.8080    -1.9860 hn         1 S46       0.318500
     21 H2          -0.9250     1.7100    -1.4140 hc         1 S46       0.069700
     22 H3           0.6350     0.8950    -1.2990 hc         1 S46       0.069700
     23 H4          -0.6470     2.4940     0.9870 hc         1 S46       0.067700
     24 H5          -2.4410    -2.4390    -2.7560 h4         1 S46       0.020100
     25 H6           0.7000     4.3830     0.4510 hc         1 S46       0.046450
     26 H7          -0.1560     3.9430    -1.0180 hc         1 S46       0.046450
     27 H8           1.4620     2.4520     2.0920 hc         1 S46       0.046450
     28 H9           1.1120     0.7890     1.6590 hc         1 S46       0.046450
     29 H10         -0.3310    -1.9660     2.0750 h4         1 S46       0.081800
     30 H11          2.2300     4.5110    -1.4440 hc         1 S46       0.038200
     31 H12          1.8670     2.8610    -1.9280 hc         1 S46       0.038200
     32 H13          2.6750     0.8950    -0.2390 hc         1 S46       0.038200
     33 H14          3.4830     1.4100     1.2330 hc         1 S46       0.038200
     34 H15         -2.1250    -5.5670     2.2030 hn         1 S46       0.320700
     35 H16         -3.2670    -5.7840    -0.4820 h4         1 S46       0.030100
     36 H17          3.9960     2.8950    -0.7180 hc         1 S46       0.042700
     37 H18          3.2710     3.7620     0.6320 hc         1 S46       0.042700
@<TRIPOS>BOND
     1     1     2 2   
     2     2     3 1   
     3     2     4 1   
     4     3     5 1   
     5     3    20 1   
     6     4     6 1   
     7     4    21 1   
     8     4    22 1   
     9     5     7 ar  
    10     5     8 ar  
    11     6     9 1   
    12     6    10 1   
    13     6    23 1   
    14     7    11 ar  
    15     7    12 1   
    16     8    13 ar  
    17     8    24 1   
    18     9    14 1   
    19     9    25 1   
    20     9    26 1   
    21    10    15 1   
    22    10    27 1   
    23    10    28 1   
    24    11    16 1   
    25    11    17 ar  
    26    12    18 2   
    27    12    29 1   
    28    13    17 ar  
    29    14    19 1   
    30    14    30 1   
    31    14    31 1   
    32    15    19 1   
    33    15    32 1   
    34    15    33 1   
    35    16    18 1   
    36    16    34 1   
    37    17    35 1   
    38    19    36 1   
    39    19    37 1   
@<TRIPOS>SUBSTRUCTURE
     1 S46         1 TEMP              0 ****  ****    0 ROOT
