@<TRIPOS>MOLECULE
S27
   35    36     1     0     0
SMALL
bcc


@<TRIPOS>ATOM
      1 O1           1.3700     1.8720    -0.2410 o          1 S27      -0.600100
      2 C1           1.3590     0.7030     0.1220 c          1 S27       0.767100
      3 N1           0.2140    -0.0690     0.2470 ns         1 S27      -0.460100
      4 N2           2.4800    -0.0360     0.4670 ns         1 S27      -0.460100
      5 C2          -1.1160     0.3760     0.0790 ca         1 S27      -0.019700
      6 C3           3.8240     0.3750     0.3590 ca         1 S27       0.056600
      7 C4          -1.5090     1.7060     0.0830 ca         1 S27       0.351200
      8 C5          -2.1190    -0.5950    -0.0640 ca         1 S27      -0.212000
      9 C6           4.2480     1.4050    -0.4830 ca         1 S27      -0.155000
     10 C7           4.7780    -0.3250     1.1100 ca         1 S27      -0.155000
     11 N3          -2.7940     2.1050    -0.0480 nb         1 S27      -0.621000
     12 C8          -3.4740    -0.2540    -0.2110 ca         1 S27       0.067300
     13 C9           5.6020     1.7440    -0.5600 ca         1 S27      -0.108500
     14 C10          6.1310     0.0150     1.0320 ca         1 S27      -0.108500
     15 C11         -3.7220     1.1250    -0.1920 ca         1 S27       0.321200
     16 N4          -4.4740    -1.2080    -0.3590 nh         1 S27      -0.647000
     17 C12          6.5430     1.0510     0.1980 ca         1 S27      -0.149000
     18 C13         -4.1660    -2.6300    -0.4300 c3         1 S27       0.182100
     19 C14         -5.8690    -0.8060    -0.5060 c3         1 S27       0.182100
     20 H1           0.3470    -1.0620     0.3520 hn         1 S27       0.307500
     21 H2           2.3180    -0.8960     0.9660 hn         1 S27       0.305500
     22 H3          -0.8060     2.5230     0.2080 h4         1 S27       0.058100
     23 H4          -1.8270    -1.6400    -0.0630 ha         1 S27       0.134000
     24 H5           3.5440     1.9580    -1.0990 ha         1 S27       0.148000
     25 H6           4.4830    -1.1350     1.7710 ha         1 S27       0.148000
     26 H7           5.9170     2.5520    -1.2160 ha         1 S27       0.134000
     27 H8           6.8630    -0.5280     1.6250 ha         1 S27       0.134000
     28 H9          -4.7290     1.5190    -0.2970 h4         1 S27       0.024100
     29 H10          7.5940     1.3190     0.1370 ha         1 S27       0.134000
     30 H11         -5.0670    -3.2390    -0.5620 h1         1 S27       0.039867
     31 H12         -3.5100    -2.8450    -1.2810 h1         1 S27       0.039867
     32 H13         -3.6860    -2.9710     0.4930 h1         1 S27       0.039867
     33 H14         -6.2020    -0.2280     0.3620 h1         1 S27       0.039867
     34 H15         -6.0070    -0.2090    -1.4150 h1         1 S27       0.039867
     35 H16         -6.5380    -1.6700    -0.5860 h1         1 S27       0.039867
@<TRIPOS>BOND
     1     1     2 2   
     2     2     3 1   
     3     2     4 1   
     4     3     5 1   
     5     3    20 1   
     6     4     6 1   
     7     4    21 1   
     8     5     7 ar  
     9     5     8 ar  
    10     6     9 ar  
    11     6    10 ar  
    12     7    11 ar  
    13     7    22 1   
    14     8    12 ar  
    15     8    23 1   
    16     9    13 ar  
    17     9    24 1   
    18    10    14 ar  
    19    10    25 1   
    20    11    15 ar  
    21    12    16 1   
    22    12    15 ar  
    23    13    17 ar  
    24    13    26 1   
    25    14    17 ar  
    26    14    27 1   
    27    15    28 1   
    28    16    18 1   
    29    16    19 1   
    30    17    29 1   
    31    18    30 1   
    32    18    31 1   
    33    18    32 1   
    34    19    33 1   
    35    19    34 1   
    36    19    35 1   
@<TRIPOS>SUBSTRUCTURE
     1 S27         1 TEMP              0 ****  ****    0 ROOT
