@<TRIPOS>MOLECULE
S28
   33    35     1     0     0
SMALL
bcc


@<TRIPOS>ATOM
      1 O1           2.0690    -0.4770    -0.3740 o          1 S28      -0.604100
      2 C1           0.9220    -0.6250     0.0250 c          1 S28       0.758100
      3 N1          -0.0640     0.3520    -0.0070 ns         1 S28      -0.441100
      4 N2           0.4190    -1.7980     0.5720 ns         1 S28      -0.458100
      5 C2           0.0500     1.6920    -0.3490 cc         1 S28      -0.111700
      6 C3           1.0830    -3.0390     0.6480 ca         1 S28       0.056600
      7 C4          -1.1810     2.5130    -0.4380 cc         1 S28       0.053700
      8 C5           1.2310     2.3130    -0.5810 cd         1 S28       0.424200
      9 C6           2.1440    -3.3930    -0.1880 ca         1 S28      -0.155500
     10 C7           0.6140    -3.9700     1.5830 ca         1 S28      -0.155500
     11 N3          -0.9810     3.8810    -0.7480 na         1 S28      -0.262200
     12 C8          -2.4510     2.0620    -0.2600 cd         1 S28      -0.270000
     13 N4           1.4050     3.6480    -0.8970 nd         1 S28      -0.715000
     14 C9           2.7400    -4.6520    -0.0780 ca         1 S28      -0.108500
     15 C10          1.2110    -5.2290     1.6920 ca         1 S28      -0.108500
     16 N5          -2.0700     4.7290    -0.8510 na         1 S28      -0.116400
     17 C11          0.3080     4.3350    -0.9580 cc         1 S28       0.572400
     18 C12         -3.5840     2.9780    -0.3780 cd         1 S28      -0.106000
     19 C13          2.2760    -5.5690     0.8620 ca         1 S28      -0.149000
     20 C14         -3.3520     4.2680    -0.6670 cc         1 S28      -0.197300
     21 H1          -0.9910     0.0120     0.1770 hn         1 S28       0.308500
     22 H2          -0.4380    -1.7230     1.0960 hn         1 S28       0.305500
     23 H3           2.1710     1.7750    -0.5170 h4         1 S28       0.063100
     24 H4           2.5230    -2.7080    -0.9420 ha         1 S28       0.148500
     25 H5          -0.2130    -3.7280     2.2450 ha         1 S28       0.148500
     26 H6          -2.7030     1.0360    -0.0340 ha         1 S28       0.141000
     27 H7           3.5700    -4.9130    -0.7310 ha         1 S28       0.134000
     28 H8           0.8460    -5.9420     2.4260 ha         1 S28       0.134000
     29 H9          -1.9290     5.7100    -1.0700 hn         1 S28       0.202700
     30 H10          0.3580     5.4090    -1.2020 h5         1 S28       0.062100
     31 H11         -4.5880     2.5970    -0.2330 ha         1 S28       0.146000
     32 H12          2.7440    -6.5470     0.9460 ha         1 S28       0.134000
     33 H13         -4.1390     5.0070    -0.7720 h4         1 S28       0.166000
@<TRIPOS>BOND
     1     1     2 2   
     2     2     3 1   
     3     2     4 1   
     4     3     5 1   
     5     3    21 1   
     6     4     6 1   
     7     4    22 1   
     8     5     7 1   
     9     5     8 2   
    10     6     9 ar  
    11     6    10 ar  
    12     7    11 1   
    13     7    12 2   
    14     8    13 1   
    15     8    23 1   
    16     9    14 ar  
    17     9    24 1   
    18    10    15 ar  
    19    10    25 1   
    20    11    16 1   
    21    11    17 1   
    22    12    18 1   
    23    12    26 1   
    24    13    17 2   
    25    14    19 ar  
    26    14    27 1   
    27    15    19 ar  
    28    15    28 1   
    29    16    20 1   
    30    16    29 1   
    31    17    30 1   
    32    18    20 2   
    33    18    31 1   
    34    19    32 1   
    35    20    33 1   
@<TRIPOS>SUBSTRUCTURE
     1 S28         1 TEMP              0 ****  ****    0 ROOT
