@<TRIPOS>MOLECULE
S45
   37    39     1     0     1 
SMALL
USER_CHARGES
@<TRIPOS>ATOM
  1 O1     -1.323000    0.650000    0.491000 o     1 S45    -0.5671 ****
  2 C1     -0.820000   -0.459000    0.640000 c     1 S45     0.6731 ****
  3 N1     -0.489000   -1.021000    1.861000 ns    1 S45    -0.4871 ****
  4 C2     -0.573000   -1.417000   -0.514000 c3    1 S45    -0.1444 ****
  5 C3     -0.478000   -0.271000    3.047000 ca    1 S45     0.0143 ****
  6 C4     -0.537000   -0.726000   -1.886000 c3    1 S45    -0.0607 ****
  7 C5      0.287000    0.894000    3.210000 ca    1 S45     0.0834 ****
  8 C6     -1.188000   -0.684000    4.169000 ca    1 S45     0.3352 ****
  9 C7     -0.599000   -1.777000   -3.007000 c3    1 S45    -0.0769 ****
 10 C8      0.723000    0.144000   -2.041000 c3    1 S45    -0.0769 ****
 11 N2      1.165000    1.524000    2.349000 nc    1 S45    -0.5451 ****
 12 C9      0.244000    1.564000    4.429000 ca    1 S45    -0.1825 ****
 13 N3     -1.215000   -0.034000    5.361000 nb    1 S45    -0.6380 ****
 14 C10    -0.517000   -1.137000   -4.391000 c3    1 S45    -0.0749 ****
 15 C11     0.803000    0.783000   -3.426000 c3    1 S45    -0.0749 ****
 16 C12     1.595000    2.579000    3.000000 cd    1 S45     0.4257 ****
 17 N4      1.064000    2.649000    4.256000 na    1 S45    -0.2793 ****
 18 C13    -0.510000    1.114000    5.500000 ca    1 S45     0.3872 ****
 19 C14     0.725000   -0.263000   -4.533000 c3    1 S45    -0.0774 ****
 20 H1     -0.283000   -2.009000    1.920000 hn    1 S45     0.3195 ****
 21 H2     -1.387000   -2.153000   -0.488000 hc    1 S45     0.0617 ****
 22 H3      0.364000   -1.961000   -0.340000 hc    1 S45     0.0617 ****
 23 H4     -1.418000   -0.077000   -1.983000 hc    1 S45     0.0777 ****
 24 H5     -1.797000   -1.584000    4.140000 h4    1 S45     0.0241 ****
 25 H6      0.224000   -2.494000   -2.892000 hc    1 S45     0.0430 ****
 26 H7     -1.532000   -2.348000   -2.932000 hc    1 S45     0.0430 ****
 27 H8      1.619000   -0.467000   -1.874000 hc    1 S45     0.0430 ****
 28 H9      0.736000    0.937000   -1.284000 hc    1 S45     0.0430 ****
 29 H10    -1.413000   -0.529000   -4.566000 hc    1 S45     0.0412 ****
 30 H11    -0.506000   -1.919000   -5.159000 hc    1 S45     0.0412 ****
 31 H12    -0.017000    1.502000   -3.543000 hc    1 S45     0.0412 ****
 32 H13     1.738000    1.346000   -3.517000 hc    1 S45     0.0412 ****
 33 H14     2.286000    3.320000    2.618000 h5    1 S45     0.0718 ****
 34 H15     1.254000    3.368000    4.939000 hn    1 S45     0.3097 ****
 35 H16    -0.563000    1.616000    6.458000 h4    1 S45     0.0261 ****
 36 H17     1.621000   -0.894000   -4.503000 hc    1 S45     0.0382 ****
 37 H18     0.717000    0.234000   -5.510000 hc    1 S45     0.0382 ****
@<TRIPOS>BOND
    1     1     2 1
    2     2     3 1
    3     2     4 1
    4     3     5 1
    5     3    20 1
    6     4     6 1
    7     4    21 1
    8     4    22 1
    9     5     7 1
   10     5     8 1
   11     6     9 1
   12     6    10 1
   13     6    23 1
   14     7    11 1
   15     7    12 1
   16     8    13 1
   17     8    24 1
   18     9    14 1
   19     9    25 1
   20     9    26 1
   21    10    15 1
   22    10    27 1
   23    10    28 1
   24    11    16 1
   25    12    17 1
   26    12    18 1
   27    13    18 1
   28    14    19 1
   29    14    29 1
   30    14    30 1
   31    15    19 1
   32    15    31 1
   33    15    32 1
   34    16    17 1
   35    16    33 1
   36    17    34 1
   37    18    35 1
   38    19    36 1
   39    19    37 1
@<TRIPOS>SUBSTRUCTURE
      1  S45              1 ****               0 ****  **** 
