@<TRIPOS>MOLECULE
S38
   39    40     1     0     1 
SMALL
USER_CHARGES
@<TRIPOS>ATOM
  1 O1      0.433000    0.148000    1.567000 o     1 S38    -0.5821 ****
  2 C1      0.236000   -0.268000    0.433000 c     1 S38     0.6671 ****
  3 N1     -0.998000   -0.571000   -0.118000 ns    1 S38    -0.4681 ****
  4 C2      1.370000   -0.550000   -0.546000 c3    1 S38    -0.1514 ****
  5 C3     -2.258000   -0.435000    0.504000 ca    1 S38    -0.0087 ****
  6 C4      2.731000    0.009000   -0.098000 c3    1 S38    -0.0627 ****
  7 C5     -2.471000    0.077000    1.778000 ca    1 S38     0.3332 ****
  8 C6     -3.388000   -0.841000   -0.219000 ca    1 S38    -0.2230 ****
  9 C7      2.770000    1.544000   -0.212000 c3    1 S38    -0.0759 ****
 10 C8      3.858000   -0.614000   -0.938000 c3    1 S38    -0.0759 ****
 11 N2     -3.695000    0.200000    2.347000 nb    1 S38    -0.6170 ****
 12 C9     -4.676000   -0.739000    0.319000 ca    1 S38     0.0573 ****
 13 C10     4.139000    2.104000    0.168000 c3    1 S38    -0.0759 ****
 14 C11     5.226000   -0.051000   -0.559000 c3    1 S38    -0.0759 ****
 15 C12    -4.753000   -0.209000    1.606000 ca    1 S38     0.3142 ****
 16 N3     -5.762000   -1.152000   -0.430000 nu    1 S38    -0.7266 ****
 17 C13     5.255000    1.470000   -0.655000 c3    1 S38    -0.0784 ****
 18 C14    -7.126000   -1.084000    0.042000 c3    1 S38     0.1731 ****
 19 H1     -1.003000   -0.935000   -1.062000 hn    1 S38     0.3155 ****
 20 H2      1.433000   -1.641000   -0.642000 hc    1 S38     0.0692 ****
 21 H3      1.103000   -0.149000   -1.531000 hc    1 S38     0.0692 ****
 22 H4      2.902000   -0.263000    0.952000 hc    1 S38     0.0717 ****
 23 H5     -1.663000    0.421000    2.414000 h4    1 S38     0.0621 ****
 24 H6     -3.270000   -1.247000   -1.220000 ha    1 S38     0.1320 ****
 25 H7      2.011000    1.996000    0.435000 hc    1 S38     0.0402 ****
 26 H8      2.531000    1.847000   -1.239000 hc    1 S38     0.0402 ****
 27 H9      3.868000   -1.702000   -0.800000 hc    1 S38     0.0402 ****
 28 H10     3.675000   -0.430000   -2.004000 hc    1 S38     0.0402 ****
 29 H11     4.324000    1.924000    1.234000 hc    1 S38     0.0434 ****
 30 H12     4.146000    3.190000    0.022000 hc    1 S38     0.0434 ****
 31 H13     5.476000   -0.357000    0.465000 hc    1 S38     0.0434 ****
 32 H14     5.994000   -0.477000   -1.215000 hc    1 S38     0.0434 ****
 33 H15    -5.707000   -0.088000    2.111000 h4    1 S38     0.0231 ****
 34 H16    -5.605000   -1.528000   -1.357000 hn    1 S38     0.3968 ****
 35 H17     5.151000    1.771000   -1.705000 hc    1 S38     0.0407 ****
 36 H18     6.226000    1.844000   -0.311000 hc    1 S38     0.0407 ****
 37 H19    -7.800000   -1.469000   -0.730000 h1    1 S38     0.0400 ****
 38 H20    -7.419000   -0.051000    0.256000 h1    1 S38     0.0400 ****
 39 H21    -7.264000   -1.695000    0.940000 h1    1 S38     0.0400 ****
@<TRIPOS>BOND
    1     1     2 1
    2     2     3 1
    3     2     4 1
    4     3     5 1
    5     3    19 1
    6     4     6 1
    7     4    20 1
    8     4    21 1
    9     5     7 1
   10     5     8 1
   11     6     9 1
   12     6    10 1
   13     6    22 1
   14     7    11 1
   15     7    23 1
   16     8    12 1
   17     8    24 1
   18     9    13 1
   19     9    25 1
   20     9    26 1
   21    10    14 1
   22    10    27 1
   23    10    28 1
   24    11    15 1
   25    12    16 1
   26    12    15 1
   27    13    17 1
   28    13    29 1
   29    13    30 1
   30    14    17 1
   31    14    31 1
   32    14    32 1
   33    15    33 1
   34    16    18 1
   35    16    34 1
   36    17    35 1
   37    17    36 1
   38    18    37 1
   39    18    38 1
   40    18    39 1
@<TRIPOS>SUBSTRUCTURE
      1  S38              1 ****               0 ****  **** 
