@<TRIPOS>MOLECULE
S40
   40    42     1     0     1 
SMALL
USER_CHARGES
@<TRIPOS>ATOM
  1 O1     -0.225000    1.306000    0.330000 o     1 S40    -0.5771 ****
  2 C1     -0.209000    0.258000   -0.304000 c     1 S40     0.6591 ****
  3 N1      0.892000   -0.331000   -0.899000 ns    1 S40    -0.4731 ****
  4 C2     -1.472000   -0.576000   -0.453000 c3    1 S40    -0.1544 ****
  5 C3      2.184000    0.151000   -1.026000 cc    1 S40    -0.0807 ****
  6 C4     -1.517000   -1.757000    0.534000 c3    1 S40    -0.0547 ****
  7 C5      2.565000    1.577000   -1.079000 cc    1 S40     0.0577 ****
  8 C6      3.184000   -0.761000   -1.105000 cd    1 S40     0.3772 ****
  9 C7     -1.652000   -1.306000    2.000000 c3    1 S40    -0.0754 ****
 10 C8     -2.655000   -2.729000    0.178000 c3    1 S40    -0.0754 ****
 11 N2      3.961000    1.832000   -0.996000 na    1 S40    -0.2652 ****
 12 C9      1.732000    2.623000   -1.310000 cd    1 S40    -0.2220 ****
 13 N3      4.537000   -0.498000   -1.149000 nd    1 S40    -0.7290 ****
 14 C10    -3.034000   -0.745000    2.330000 c3    1 S40    -0.0774 ****
 15 C11    -4.040000   -2.167000    0.496000 c3    1 S40    -0.0774 ****
 16 N4      4.424000    3.137000   -1.023000 na    1 S40    -0.1174 ****
 17 C12     4.835000    0.763000   -1.069000 cc    1 S40     0.5814 ****
 18 C13     2.248000    3.987000   -1.371000 cd    1 S40    -0.1080 ****
 19 C14    -4.144000   -1.720000    1.951000 c3    1 S40    -0.0784 ****
 20 C15     3.566000    4.193000   -1.217000 cc    1 S40    -0.1973 ****
 21 H1      0.774000   -1.308000   -1.140000 hn    1 S40     0.3155 ****
 22 H2     -1.508000   -0.949000   -1.485000 hc    1 S40     0.0747 ****
 23 H3     -2.333000    0.090000   -0.338000 hc    1 S40     0.0747 ****
 24 H4     -0.572000   -2.311000    0.448000 hc    1 S40     0.0377 ****
 25 H5      2.958000   -1.824000   -1.080000 h4    1 S40     0.0251 ****
 26 H6     -1.466000   -2.172000    2.649000 hc    1 S40     0.0449 ****
 27 H7     -0.884000   -0.567000    2.253000 hc    1 S40     0.0449 ****
 28 H8     -2.603000   -3.003000   -0.883000 hc    1 S40     0.0449 ****
 29 H9     -2.515000   -3.659000    0.744000 hc    1 S40     0.0449 ****
 30 H10     0.669000    2.508000   -1.472000 ha    1 S40     0.1560 ****
 31 H11    -3.186000    0.207000    1.809000 hc    1 S40     0.0432 ****
 32 H12    -3.092000   -0.526000    3.402000 hc    1 S40     0.0432 ****
 33 H13    -4.799000   -2.931000    0.294000 hc    1 S40     0.0432 ****
 34 H14    -4.261000   -1.322000   -0.166000 hc    1 S40     0.0432 ****
 35 H15     5.386000    3.336000   -0.763000 hn    1 S40     0.2037 ****
 36 H16     5.895000    1.067000   -1.080000 h5    1 S40     0.0591 ****
 37 H17     1.551000    4.803000   -1.517000 ha    1 S40     0.1450 ****
 38 H18    -4.091000   -2.600000    2.604000 hc    1 S40     0.0407 ****
 39 H19    -5.121000   -1.254000    2.125000 hc    1 S40     0.0407 ****
 40 H20     4.019000    5.178000   -1.225000 h4    1 S40     0.1640 ****
@<TRIPOS>BOND
    1     1     2 1
    2     2     3 1
    3     2     4 1
    4     3     5 1
    5     3    21 1
    6     4     6 1
    7     4    22 1
    8     4    23 1
    9     5     7 1
   10     5     8 1
   11     6     9 1
   12     6    10 1
   13     6    24 1
   14     7    11 1
   15     7    12 1
   16     8    13 1
   17     8    25 1
   18     9    14 1
   19     9    26 1
   20     9    27 1
   21    10    15 1
   22    10    28 1
   23    10    29 1
   24    11    16 1
   25    11    17 1
   26    12    18 1
   27    12    30 1
   28    13    17 1
   29    14    19 1
   30    14    31 1
   31    14    32 1
   32    15    19 1
   33    15    33 1
   34    15    34 1
   35    16    20 1
   36    16    35 1
   37    17    36 1
   38    18    20 1
   39    18    37 1
   40    19    38 1
   41    19    39 1
   42    20    40 1
@<TRIPOS>SUBSTRUCTURE
      1  S40              1 ****               0 ****  **** 
