@<TRIPOS>MOLECULE
S29
   32    34     1     0     1 
SMALL
USER_CHARGES
@<TRIPOS>ATOM
  1 O1     -0.560000   -0.856000   -0.399000 o     1 S29    -0.5971 ****
  2 C1      0.508000   -0.439000    0.031000 c     1 S29     0.7511 ****
  3 N1      0.682000    0.043000    1.320000 ns    1 S29    -0.4501 ****
  4 N2      1.694000   -0.364000   -0.678000 ns    1 S29    -0.4591 ****
  5 C2     -0.374000    0.137000    2.256000 ca    1 S29    -0.0457 ****
  6 C3      1.928000   -0.844000   -1.982000 ca    1 S29     0.0546 ****
  7 C4     -1.528000    0.940000    2.060000 ca    1 S29    -0.1073 ****
  8 C5     -0.239000   -0.551000    3.460000 ca    1 S29     0.3462 ****
  9 C6      3.055000   -0.359000   -2.657000 ca    1 S29    -0.1550 ****
 10 C7      1.123000   -1.798000   -2.606000 ca    1 S29    -0.1550 ****
 11 C8     -2.506000    0.984000    3.075000 ca    1 S29     0.2823 ****
 12 C9     -1.777000    1.737000    0.920000 ca    1 S29    -0.0550 ****
 13 N3     -1.149000   -0.520000    4.452000 nb    1 S29    -0.6480 ****
 14 C10     3.360000   -0.808000   -3.945000 ca    1 S29    -0.1085 ****
 15 C11     1.428000   -2.247000   -3.895000 ca    1 S29    -0.1085 ****
 16 N4     -3.636000    1.720000    2.985000 nb    1 S29    -0.6490 ****
 17 C12    -2.251000    0.238000    4.216000 ca    1 S29     0.3699 ****
 18 C13    -2.941000    2.492000    0.817000 ca    1 S29    -0.2423 ****
 19 C14     2.544000   -1.751000   -4.564000 ca    1 S29    -0.1470 ****
 20 C15    -3.834000    2.447000    1.866000 ca    1 S29     0.4152 ****
 21 H1      1.621000    0.014000    1.691000 hn    1 S29     0.3005 ****
 22 H2      2.423000    0.203000   -0.273000 hn    1 S29     0.3085 ****
 23 H3      0.626000   -1.176000    3.662000 h4    1 S29     0.0221 ****
 24 H4      3.707000    0.379000   -2.198000 ha    1 S29     0.1485 ****
 25 H5      0.252000   -2.218000   -2.111000 ha    1 S29     0.1485 ****
 26 H6     -1.071000    1.764000    0.095000 ha    1 S29     0.1580 ****
 27 H7      4.232000   -0.421000   -4.464000 ha    1 S29     0.1350 ****
 28 H8      0.790000   -2.987000   -4.372000 ha    1 S29     0.1350 ****
 29 H9     -2.977000    0.242000    5.027000 h4    1 S29     0.0431 ****
 30 H10    -3.143000    3.091000   -0.063000 ha    1 S29     0.1490 ****
 31 H11     2.777000   -2.102000   -5.566000 ha    1 S29     0.1350 ****
 32 H12    -4.761000    3.012000    1.838000 h4    1 S29     0.0261 ****
@<TRIPOS>BOND
    1     1     2 1
    2     2     3 1
    3     2     4 1
    4     3     5 1
    5     3    21 1
    6     4     6 1
    7     4    22 1
    8     5     7 1
    9     5     8 1
   10     6     9 1
   11     6    10 1
   12     7    11 1
   13     7    12 1
   14     8    13 1
   15     8    23 1
   16     9    14 1
   17     9    24 1
   18    10    15 1
   19    10    25 1
   20    11    16 1
   21    11    17 1
   22    12    18 1
   23    12    26 1
   24    13    17 1
   25    14    19 1
   26    14    27 1
   27    15    19 1
   28    15    28 1
   29    16    20 1
   30    17    29 1
   31    18    20 1
   32    18    30 1
   33    19    31 1
   34    20    32 1
@<TRIPOS>SUBSTRUCTURE
      1  S29              1 ****               0 ****  **** 
