@<TRIPOS>MOLECULE
S38
   39    40     1     0     0
SMALL
bcc


@<TRIPOS>ATOM
      1 O1           0.4330     0.1480     1.5670 o          1 S38      -0.582100
      2 C1           0.2360    -0.2680     0.4330 c          1 S38       0.667100
      3 N1          -0.9980    -0.5710    -0.1180 ns         1 S38      -0.468100
      4 C2           1.3700    -0.5500    -0.5460 c3         1 S38      -0.151400
      5 C3          -2.2580    -0.4350     0.5040 ca         1 S38      -0.008700
      6 C4           2.7310     0.0090    -0.0980 c3         1 S38      -0.062700
      7 C5          -2.4710     0.0770     1.7780 ca         1 S38       0.333200
      8 C6          -3.3880    -0.8410    -0.2190 ca         1 S38      -0.223000
      9 C7           2.7700     1.5440    -0.2120 c3         1 S38      -0.075900
     10 C8           3.8580    -0.6140    -0.9380 c3         1 S38      -0.075900
     11 N2          -3.6950     0.2000     2.3470 nb         1 S38      -0.617000
     12 C9          -4.6760    -0.7390     0.3190 ca         1 S38       0.057300
     13 C10          4.1390     2.1040     0.1680 c3         1 S38      -0.075900
     14 C11          5.2260    -0.0510    -0.5590 c3         1 S38      -0.075900
     15 C12         -4.7530    -0.2090     1.6060 ca         1 S38       0.314200
     16 N3          -5.7620    -1.1520    -0.4300 nu         1 S38      -0.726600
     17 C13          5.2550     1.4700    -0.6550 c3         1 S38      -0.078400
     18 C14         -7.1260    -1.0840     0.0420 c3         1 S38       0.173100
     19 H1          -1.0030    -0.9350    -1.0620 hn         1 S38       0.315500
     20 H2           1.4330    -1.6410    -0.6420 hc         1 S38       0.069200
     21 H3           1.1030    -0.1490    -1.5310 hc         1 S38       0.069200
     22 H4           2.9020    -0.2630     0.9520 hc         1 S38       0.071700
     23 H5          -1.6630     0.4210     2.4140 h4         1 S38       0.062100
     24 H6          -3.2700    -1.2470    -1.2200 ha         1 S38       0.132000
     25 H7           2.0110     1.9960     0.4350 hc         1 S38       0.040200
     26 H8           2.5310     1.8470    -1.2390 hc         1 S38       0.040200
     27 H9           3.8680    -1.7020    -0.8000 hc         1 S38       0.040200
     28 H10          3.6750    -0.4300    -2.0040 hc         1 S38       0.040200
     29 H11          4.3240     1.9240     1.2340 hc         1 S38       0.043450
     30 H12          4.1460     3.1900     0.0220 hc         1 S38       0.043450
     31 H13          5.4760    -0.3570     0.4650 hc         1 S38       0.043450
     32 H14          5.9940    -0.4770    -1.2150 hc         1 S38       0.043450
     33 H15         -5.7070    -0.0880     2.1110 h4         1 S38       0.023100
     34 H16         -5.6050    -1.5280    -1.3570 hn         1 S38       0.396800
     35 H17          5.1510     1.7710    -1.7050 hc         1 S38       0.040700
     36 H18          6.2260     1.8440    -0.3110 hc         1 S38       0.040700
     37 H19         -7.8000    -1.4690    -0.7300 h1         1 S38       0.040033
     38 H20         -7.4190    -0.0510     0.2560 h1         1 S38       0.040033
     39 H21         -7.2640    -1.6950     0.9400 h1         1 S38       0.040033
@<TRIPOS>BOND
     1     1     2 2   
     2     2     3 1   
     3     2     4 1   
     4     3     5 1   
     5     3    19 1   
     6     4     6 1   
     7     4    20 1   
     8     4    21 1   
     9     5     7 ar  
    10     5     8 ar  
    11     6     9 1   
    12     6    10 1   
    13     6    22 1   
    14     7    11 ar  
    15     7    23 1   
    16     8    12 ar  
    17     8    24 1   
    18     9    13 1   
    19     9    25 1   
    20     9    26 1   
    21    10    14 1   
    22    10    27 1   
    23    10    28 1   
    24    11    15 ar  
    25    12    16 1   
    26    12    15 ar  
    27    13    17 1   
    28    13    29 1   
    29    13    30 1   
    30    14    17 1   
    31    14    31 1   
    32    14    32 1   
    33    15    33 1   
    34    16    18 1   
    35    16    34 1   
    36    17    35 1   
    37    17    36 1   
    38    18    37 1   
    39    18    38 1   
    40    18    39 1   
@<TRIPOS>SUBSTRUCTURE
     1 S38         1 TEMP              0 ****  ****    0 ROOT
