@<TRIPOS>MOLECULE
S30
   31    33     1     0     0
SMALL
bcc


@<TRIPOS>ATOM
      1 O1          -0.5080     0.9480     1.4700 o          1 S30      -0.602100
      2 C1          -0.2910     0.6070     0.3150 c          1 S30       0.767100
      3 N1           0.5290    -0.4480    -0.0490 ns         1 S30      -0.452100
      4 N2          -0.8240     1.2160    -0.8100 ns         1 S30      -0.461100
      5 C2           1.3130    -1.2390     0.8180 ca         1 S30      -0.007700
      6 C3          -1.7800     2.2520    -0.8350 ca         1 S30       0.058600
      7 C4           1.8670    -2.4490     0.3440 ca         1 S30      -0.113800
      8 C5           1.6330    -0.9080     2.1350 ca         1 S30       0.353200
      9 C6          -1.9010     2.9930    -2.0170 ca         1 S30      -0.156000
     10 C7          -2.6280     2.5400     0.2350 ca         1 S30      -0.156000
     11 C8           2.6620    -3.2080     1.2060 ca         1 S30      -0.149500
     12 C9           1.8180    -3.1620    -0.8930 cc         1 S30      -0.200200
     13 N3           2.4110    -1.6530     2.9630 nb         1 S30      -0.633000
     14 C10         -2.8440     4.0190    -2.1190 ca         1 S30      -0.108500
     15 C11         -3.5720     3.5670     0.1330 ca         1 S30      -0.108500
     16 N4           3.0710    -4.3270     0.5180 na         1 S30      -0.180400
     17 C12          2.9290    -2.8120     2.5100 ca         1 S30       0.371200
     18 C13          2.5670    -4.3080    -0.7550 cd         1 S30      -0.094100
     19 C14         -3.6780     4.3070    -1.0420 ca         1 S30      -0.149000
     20 H1           0.4780    -0.7610    -1.0050 hn         1 S30       0.310500
     21 H2          -0.3950     0.9870    -1.6920 hn         1 S30       0.305500
     22 H3           1.2780     0.0100     2.5940 h4         1 S30       0.059100
     23 H4          -1.2590     2.7910    -2.8700 ha         1 S30       0.148500
     24 H5          -2.5840     1.9740     1.1620 ha         1 S30       0.148500
     25 H6           1.2880    -2.8730    -1.7900 ha         1 S30       0.152000
     26 H7          -2.9250     4.5950    -3.0370 ha         1 S30       0.134000
     27 H8          -4.2230     3.7840     0.9760 ha         1 S30       0.134000
     28 H9           3.6580    -5.0550     0.9020 hn         1 S30       0.304700
     29 H10          3.5410    -3.3810     3.1990 h4         1 S30       0.023100
     30 H11          2.7810    -5.1100    -1.4480 h4         1 S30       0.169000
     31 H12         -4.4120     5.1060    -1.1170 ha         1 S30       0.133000
@<TRIPOS>BOND
     1     1     2 2   
     2     2     3 1   
     3     2     4 1   
     4     3     5 1   
     5     3    20 1   
     6     4     6 1   
     7     4    21 1   
     8     5     7 ar  
     9     5     8 ar  
    10     6     9 ar  
    11     6    10 ar  
    12     7    11 ar  
    13     7    12 1   
    14     8    13 ar  
    15     8    22 1   
    16     9    14 ar  
    17     9    23 1   
    18    10    15 ar  
    19    10    24 1   
    20    11    16 1   
    21    11    17 ar  
    22    12    18 2   
    23    12    25 1   
    24    13    17 ar  
    25    14    19 ar  
    26    14    26 1   
    27    15    19 ar  
    28    15    27 1   
    29    16    18 1   
    30    16    28 1   
    31    17    29 1   
    32    18    30 1   
    33    19    31 1   
@<TRIPOS>SUBSTRUCTURE
     1 S30         1 TEMP              0 ****  ****    0 ROOT
