@<TRIPOS>MOLECULE
S47
   40    42     1     0     0
SMALL
bcc


@<TRIPOS>ATOM
      1 O1           2.0930    -2.3410     0.8990 o          1 S47      -0.594100
      2 C1           1.2600    -1.6670     0.2860 c          1 S47       0.662100
      3 N1           1.2070    -1.7750    -1.0740 ns         1 S47      -0.485100
      4 C2           0.4030    -0.6480     1.0200 c3         1 S47      -0.143400
      5 C3           0.2940    -1.2870    -1.9820 cc         1 S47       0.002300
      6 C4           0.8720     0.8000     0.7730 c3         1 S47      -0.050700
      7 N2          -1.1270    -1.3160    -1.8560 na         1 S47      -0.237900
      8 C5           0.8210    -0.7470    -3.1120 cd         1 S47      -0.085300
      9 C6           2.2520     1.0950     1.3880 c3         1 S47      -0.076400
     10 C7          -0.1640     1.8110     1.2970 c3         1 S47      -0.076400
     11 C8          -1.9360    -0.6120    -2.8090 cc         1 S47       0.447800
     12 C9          -1.8230    -2.1420    -0.9800 cc         1 S47       0.013700
     13 N3           0.0390    -0.1360    -4.0660 na         1 S47      -0.209100
     14 C10          2.2240     1.1790     2.9130 c3         1 S47      -0.076400
     15 C11         -0.2030     1.8860     2.8220 c3         1 S47      -0.076400
     16 N4          -3.3140    -0.5150    -2.7360 nc         1 S47      -0.675000
     17 C12         -1.3210    -0.0480    -3.8770 cd         1 S47      -0.233600
     18 C13         -3.1570    -2.1760    -0.8950 cd         1 S47      -0.378300
     19 C14          1.1770     2.1740     3.4050 c3         1 S47      -0.078400
     20 C15         -3.8560    -1.2570    -1.8220 cd         1 S47       0.467200
     21 H1           2.0360    -2.2190    -1.4500 hn         1 S47       0.324500
     22 H2           0.4360    -0.9000     2.0860 hc         1 S47       0.076700
     23 H3          -0.6410    -0.7510     0.7330 hc         1 S47       0.076700
     24 H4           0.9580     0.9550    -0.3100 hc         1 S47       0.043700
     25 H5           1.8860    -0.6930    -3.3110 h4         1 S47       0.169000
     26 H6           2.9860     0.3440     1.0740 hc         1 S47       0.045450
     27 H7           2.6110     2.0540     0.9940 hc         1 S47       0.045450
     28 H8          -1.1620     1.5660     0.9140 hc         1 S47       0.045450
     29 H9           0.0830     2.8050     0.9020 hc         1 S47       0.045450
     30 H10         -1.2110    -2.7980    -0.3700 h4         1 S47       0.158000
     31 H11          0.4610     0.2960    -4.8780 hn         1 S47       0.241700
     32 H12          3.2130     1.4810     3.2790 hc         1 S47       0.042200
     33 H13          2.0230     0.1910     3.3410 hc         1 S47       0.042200
     34 H14         -0.5870     0.9450     3.2330 hc         1 S47       0.042200
     35 H15         -0.9010     2.6720     3.1310 hc         1 S47       0.042200
     36 H16         -1.8710     0.4800    -4.6470 h4         1 S47       0.179000
     37 H17         -3.7180    -2.8150    -0.2310 ha         1 S47       0.157000
     38 H18          1.1290     2.1480     4.4990 hc         1 S47       0.040200
     39 H19          1.4830     3.1900     3.1250 hc         1 S47       0.040200
     40 H20         -4.9520    -1.2290    -1.7070 h4         1 S47       0.026100
@<TRIPOS>BOND
     1     1     2 2   
     2     2     3 1   
     3     2     4 1   
     4     3     5 1   
     5     3    21 1   
     6     4     6 1   
     7     4    22 1   
     8     4    23 1   
     9     5     7 1   
    10     5     8 2   
    11     6     9 1   
    12     6    10 1   
    13     6    24 1   
    14     7    11 1   
    15     7    12 1   
    16     8    13 1   
    17     8    25 1   
    18     9    14 1   
    19     9    26 1   
    20     9    27 1   
    21    10    15 1   
    22    10    28 1   
    23    10    29 1   
    24    11    16 1   
    25    11    17 2   
    26    12    18 2   
    27    12    30 1   
    28    13    17 1   
    29    13    31 1   
    30    14    19 1   
    31    14    32 1   
    32    14    33 1   
    33    15    19 1   
    34    15    34 1   
    35    15    35 1   
    36    16    20 2   
    37    17    36 1   
    38    18    20 1   
    39    18    37 1   
    40    19    38 1   
    41    19    39 1   
    42    20    40 1   
@<TRIPOS>SUBSTRUCTURE
     1 S47         1 TEMP              0 ****  ****    0 ROOT
