@<TRIPOS>MOLECULE
S36
   34    35     1     0     1 
SMALL
USER_CHARGES
@<TRIPOS>ATOM
  1 O1     -0.348000    0.486000   -1.478000 o     1 S36    -0.5891 ****
  2 C1     -0.509000   -0.484000   -0.748000 c     1 S36     0.6671 ****
  3 N1     -1.566000   -1.380000   -0.798000 ns    1 S36    -0.4671 ****
  4 C2      0.497000   -0.871000    0.330000 c3    1 S36    -0.1514 ****
  5 C3     -2.679000   -1.337000   -1.665000 ca    1 S36    -0.0447 ****
  6 C4      1.545000    0.216000    0.621000 c3    1 S36    -0.0627 ****
  7 C5     -3.583000   -2.400000   -1.647000 ca    1 S36     0.3412 ****
  8 C6     -2.959000   -0.291000   -2.540000 ca    1 S36    -0.1240 ****
  9 C7      2.706000   -0.377000    1.438000 c3    1 S36    -0.0759 ****
 10 C8      0.923000    1.407000    1.370000 c3    1 S36    -0.0759 ****
 11 N2     -4.695000   -2.486000   -2.416000 nb    1 S36    -0.6420 ****
 12 C9     -4.095000   -0.348000   -3.349000 ca    1 S36    -0.2173 ****
 13 C10     3.749000    0.680000    1.791000 c3    1 S36    -0.0759 ****
 14 C11     1.968000    2.463000    1.722000 c3    1 S36    -0.0759 ****
 15 C12    -4.923000   -1.453000   -3.253000 ca    1 S36     0.3592 ****
 16 C13     3.125000    1.867000    2.517000 c3    1 S36    -0.0784 ****
 17 H1     -1.530000   -2.163000   -0.158000 hn    1 S36     0.3185 ****
 18 H2     -0.042000   -1.131000    1.249000 hc    1 S36     0.0702 ****
 19 H3      0.998000   -1.781000   -0.025000 hc    1 S36     0.0702 ****
 20 H4      1.955000    0.582000   -0.330000 hc    1 S36     0.0707 ****
 21 H5     -3.438000   -3.253000   -0.990000 h4    1 S36     0.0161 ****
 22 H6     -2.319000    0.582000   -2.617000 ha    1 S36     0.1790 ****
 23 H7      3.189000   -1.181000    0.870000 hc    1 S36     0.0405 ****
 24 H8      2.320000   -0.826000    2.361000 hc    1 S36     0.0405 ****
 25 H9      0.138000    1.874000    0.764000 hc    1 S36     0.0405 ****
 26 H10     0.442000    1.057000    2.293000 hc    1 S36     0.0405 ****
 27 H11    -4.325000    0.458000   -4.037000 ha    1 S36     0.1450 ****
 28 H12     4.529000    0.233000    2.419000 hc    1 S36     0.0434 ****
 29 H13     4.240000    1.030000    0.874000 hc    1 S36     0.0434 ****
 30 H14     2.353000    2.917000    0.800000 hc    1 S36     0.0434 ****
 31 H15     1.500000    3.267000    2.301000 hc    1 S36     0.0434 ****
 32 H16    -5.818000   -1.538000   -3.864000 h4    1 S36     0.0231 ****
 33 H17     3.887000    2.635000    2.693000 hc    1 S36     0.0412 ****
 34 H18     2.763000    1.544000    3.501000 hc    1 S36     0.0412 ****
@<TRIPOS>BOND
    1     1     2 1
    2     2     3 1
    3     2     4 1
    4     3     5 1
    5     3    17 1
    6     4     6 1
    7     4    18 1
    8     4    19 1
    9     5     7 1
   10     5     8 1
   11     6     9 1
   12     6    10 1
   13     6    20 1
   14     7    11 1
   15     7    21 1
   16     8    12 1
   17     8    22 1
   18     9    13 1
   19     9    23 1
   20     9    24 1
   21    10    14 1
   22    10    25 1
   23    10    26 1
   24    11    15 1
   25    12    15 1
   26    12    27 1
   27    13    16 1
   28    13    28 1
   29    13    29 1
   30    14    16 1
   31    14    30 1
   32    14    31 1
   33    15    32 1
   34    16    33 1
   35    16    34 1
@<TRIPOS>SUBSTRUCTURE
      1  S36              1 ****               0 ****  **** 
