@<TRIPOS>MOLECULE
S33
   30    32     1     0     0
SMALL
bcc


@<TRIPOS>ATOM
      1 O1          -0.4690    -0.5430    -1.6120 o          1 S33      -0.608100
      2 C1          -0.1640     0.0910    -0.6100 c          1 S33       0.772100
      3 N1           0.0190    -0.4740     0.6360 ns         1 S33      -0.453100
      4 N2           0.0370     1.4600    -0.5590 ns         1 S33      -0.462100
      5 C2          -0.1330    -1.8290     0.9850 ca         1 S33       0.017300
      6 C3          -0.0010     2.3680    -1.6360 ca         1 S33       0.060600
      7 C4           0.1690    -2.2070     2.3030 ca         1 S33       0.037400
      8 C5          -0.5650    -2.8660     0.1650 ca         1 S33       0.352200
      9 C6           0.0750     1.9840    -2.9760 ca         1 S33      -0.157000
     10 C7          -0.0840     3.7320    -1.3260 ca         1 S33      -0.157000
     11 N3           0.6130    -1.4290     3.3570 nc         1 S33      -0.582100
     12 C8           0.0310    -3.5310     2.6950 ca         1 S33      -0.172500
     13 N4          -0.7000    -4.1660     0.5550 nb         1 S33      -0.628000
     14 C9           0.0510     2.9460    -3.9910 ca         1 S33      -0.108500
     15 C10         -0.1080     4.6930    -2.3400 ca         1 S33      -0.108500
     16 C11          0.7440    -2.2620     4.3640 cd         1 S33       0.429700
     17 N5           0.4050    -3.5410     4.0140 na         1 S33      -0.276300
     18 C12         -0.4020    -4.5170     1.8270 ca         1 S33       0.376200
     19 C13         -0.0420     4.2990    -3.6740 ca         1 S33      -0.150000
     20 H1           0.3480     0.1080     1.3970 hn         1 S33       0.329500
     21 H2           0.1410     1.8630     0.3580 hn         1 S33       0.310500
     22 H3          -0.8350    -2.6990    -0.8740 h4         1 S33       0.065100
     23 H4           0.1630     0.9410    -3.2640 ha         1 S33       0.149000
     24 H5          -0.1400     4.0650    -0.2930 ha         1 S33       0.149000
     25 H6           0.1070     2.6320    -5.0300 ha         1 S33       0.134000
     26 H7          -0.1800     5.7480    -2.0880 ha         1 S33       0.134000
     27 H8           1.0760    -2.0050     5.3620 h5         1 S33       0.072800
     28 H9           0.4270    -4.3470     4.6220 hn         1 S33       0.311700
     29 H10         -0.5210    -5.5590     2.0960 h4         1 S33       0.026100
     30 H11         -0.0610     5.0440    -4.4650 ha         1 S33       0.133000
@<TRIPOS>BOND
     1     1     2 2   
     2     2     3 1   
     3     2     4 1   
     4     3     5 1   
     5     3    20 1   
     6     4     6 1   
     7     4    21 1   
     8     5     7 ar  
     9     5     8 ar  
    10     6     9 ar  
    11     6    10 ar  
    12     7    11 1   
    13     7    12 ar  
    14     8    13 ar  
    15     8    22 1   
    16     9    14 ar  
    17     9    23 1   
    18    10    15 ar  
    19    10    24 1   
    20    11    16 2   
    21    12    17 1   
    22    12    18 ar  
    23    13    18 ar  
    24    14    19 ar  
    25    14    25 1   
    26    15    19 ar  
    27    15    26 1   
    28    16    17 1   
    29    16    27 1   
    30    17    28 1   
    31    18    29 1   
    32    19    30 1   
@<TRIPOS>SUBSTRUCTURE
     1 S33         1 TEMP              0 ****  ****    0 ROOT
