@<TRIPOS>MOLECULE
S28
   33    35     1     0     1 
SMALL
USER_CHARGES
@<TRIPOS>ATOM
  1 O1      2.069000   -0.477000   -0.374000 o     1 S28    -0.6041 ****
  2 C1      0.922000   -0.625000    0.025000 c     1 S28     0.7581 ****
  3 N1     -0.064000    0.352000   -0.007000 ns    1 S28    -0.4411 ****
  4 N2      0.419000   -1.798000    0.572000 ns    1 S28    -0.4581 ****
  5 C2      0.050000    1.692000   -0.349000 cc    1 S28    -0.1117 ****
  6 C3      1.083000   -3.039000    0.648000 ca    1 S28     0.0566 ****
  7 C4     -1.181000    2.513000   -0.438000 cc    1 S28     0.0537 ****
  8 C5      1.231000    2.313000   -0.581000 cd    1 S28     0.4242 ****
  9 C6      2.144000   -3.393000   -0.188000 ca    1 S28    -0.1555 ****
 10 C7      0.614000   -3.970000    1.583000 ca    1 S28    -0.1555 ****
 11 N3     -0.981000    3.881000   -0.748000 na    1 S28    -0.2622 ****
 12 C8     -2.451000    2.062000   -0.260000 cd    1 S28    -0.2700 ****
 13 N4      1.405000    3.648000   -0.897000 nd    1 S28    -0.7150 ****
 14 C9      2.740000   -4.652000   -0.078000 ca    1 S28    -0.1085 ****
 15 C10     1.211000   -5.229000    1.692000 ca    1 S28    -0.1085 ****
 16 N5     -2.070000    4.729000   -0.851000 na    1 S28    -0.1164 ****
 17 C11     0.308000    4.335000   -0.958000 cc    1 S28     0.5724 ****
 18 C12    -3.584000    2.978000   -0.378000 cd    1 S28    -0.1060 ****
 19 C13     2.276000   -5.569000    0.862000 ca    1 S28    -0.1490 ****
 20 C14    -3.352000    4.268000   -0.667000 cc    1 S28    -0.1973 ****
 21 H1     -0.991000    0.012000    0.177000 hn    1 S28     0.3085 ****
 22 H2     -0.438000   -1.723000    1.096000 hn    1 S28     0.3055 ****
 23 H3      2.171000    1.775000   -0.517000 h4    1 S28     0.0631 ****
 24 H4      2.523000   -2.708000   -0.942000 ha    1 S28     0.1485 ****
 25 H5     -0.213000   -3.728000    2.245000 ha    1 S28     0.1485 ****
 26 H6     -2.703000    1.036000   -0.034000 ha    1 S28     0.1410 ****
 27 H7      3.570000   -4.913000   -0.731000 ha    1 S28     0.1340 ****
 28 H8      0.846000   -5.942000    2.426000 ha    1 S28     0.1340 ****
 29 H9     -1.929000    5.710000   -1.070000 hn    1 S28     0.2027 ****
 30 H10     0.358000    5.409000   -1.202000 h5    1 S28     0.0621 ****
 31 H11    -4.588000    2.597000   -0.233000 ha    1 S28     0.1460 ****
 32 H12     2.744000   -6.547000    0.946000 ha    1 S28     0.1340 ****
 33 H13    -4.139000    5.007000   -0.772000 h4    1 S28     0.1660 ****
@<TRIPOS>BOND
    1     1     2 1
    2     2     3 1
    3     2     4 1
    4     3     5 1
    5     3    21 1
    6     4     6 1
    7     4    22 1
    8     5     7 1
    9     5     8 1
   10     6     9 1
   11     6    10 1
   12     7    11 1
   13     7    12 1
   14     8    13 1
   15     8    23 1
   16     9    14 1
   17     9    24 1
   18    10    15 1
   19    10    25 1
   20    11    16 1
   21    11    17 1
   22    12    18 1
   23    12    26 1
   24    13    17 1
   25    14    19 1
   26    14    27 1
   27    15    19 1
   28    15    28 1
   29    16    20 1
   30    16    29 1
   31    17    30 1
   32    18    20 1
   33    18    31 1
   34    19    32 1
   35    20    33 1
@<TRIPOS>SUBSTRUCTURE
      1  S28              1 ****               0 ****  **** 
