@<TRIPOS>MOLECULE
S42
   38    40     1     0     0
SMALL
bcc


@<TRIPOS>ATOM
      1 O1           0.6180     0.5980     1.9830 o          1 S42      -0.587100
      2 C1           0.4890     0.4860     0.7700 c          1 S42       0.664100
      3 N1           1.2580    -0.3140    -0.0560 ns         1 S42      -0.461100
      4 C2          -0.5540     1.2690    -0.0210 c3         1 S42      -0.148400
      5 C3           2.3120    -1.1680     0.3320 ca         1 S42       0.002300
      6 C4          -1.6030     1.9720     0.8620 c3         1 S42      -0.058700
      7 C5           3.0160    -1.8910    -0.6580 ca         1 S42      -0.119800
      8 C6           2.7390    -1.3810     1.6440 ca         1 S42       0.333200
      9 C7          -2.3880     3.0230     0.0580 c3         1 S42      -0.077400
     10 C8          -2.5770     0.9800     1.5250 c3         1 S42      -0.077400
     11 C9           4.0550    -2.7370    -0.2640 ca         1 S42      -0.145500
     12 C10          2.9330    -1.9880    -2.0810 cc         1 S42      -0.197200
     13 N2           3.7520    -2.2080     2.0140 nb         1 S42      -0.630000
     14 C11         -3.3690     2.4030    -0.9360 c3         1 S42      -0.076900
     15 C12         -3.5740     0.3640     0.5430 c3         1 S42      -0.076900
     16 N3           4.5730    -3.3160    -1.4000 na         1 S42      -0.181400
     17 C13          4.4200    -2.8940     1.0650 ca         1 S42       0.363200
     18 C14          3.9010    -2.8700    -2.5060 cd         1 S42      -0.098100
     19 C15         -4.3220     1.4310    -0.2490 c3         1 S42      -0.077400
     20 H1           1.0580    -0.2880    -1.0470 hn         1 S42       0.319500
     21 H2          -1.0300     0.5950    -0.7410 hc         1 S42       0.068700
     22 H3           0.0000     2.0200    -0.5990 hc         1 S42       0.068700
     23 H4          -1.0710     2.5040     1.6620 hc         1 S42       0.069700
     24 H5           2.2710    -0.8830     2.4860 h4         1 S42       0.061100
     25 H6          -1.6980     3.6890    -0.4730 hc         1 S42       0.045700
     26 H7          -2.9500     3.6540     0.7580 hc         1 S42       0.045700
     27 H8          -2.0320     0.1810     2.0380 hc         1 S42       0.045700
     28 H9          -3.1410     1.5140     2.3020 hc         1 S42       0.045700
     29 H10          2.2410    -1.4700    -2.7300 ha         1 S42       0.152000
     30 H11         -3.9460     3.1980    -1.4220 hc         1 S42       0.037950
     31 H12         -2.8190     1.8830    -1.7290 hc         1 S42       0.037950
     32 H13         -3.0530    -0.3090    -0.1470 hc         1 S42       0.037950
     33 H14         -4.2940    -0.2520     1.0940 hc         1 S42       0.037950
     34 H15          5.3400    -3.9760    -1.4110 hn         1 S42       0.303700
     35 H16          5.2210    -3.5430     1.3980 h4         1 S42       0.021100
     36 H17          4.1680    -3.2160    -3.4950 h4         1 S42       0.168000
     37 H18         -4.9820     1.9880     0.4270 hc         1 S42       0.041200
     38 H19         -4.9640     0.9530    -0.9970 hc         1 S42       0.041200
@<TRIPOS>BOND
     1     1     2 2   
     2     2     3 1   
     3     2     4 1   
     4     3     5 1   
     5     3    20 1   
     6     4     6 1   
     7     4    21 1   
     8     4    22 1   
     9     5     7 ar  
    10     5     8 ar  
    11     6     9 1   
    12     6    10 1   
    13     6    23 1   
    14     7    11 ar  
    15     7    12 1   
    16     8    13 ar  
    17     8    24 1   
    18     9    14 1   
    19     9    25 1   
    20     9    26 1   
    21    10    15 1   
    22    10    27 1   
    23    10    28 1   
    24    11    16 1   
    25    11    17 ar  
    26    12    18 2   
    27    12    29 1   
    28    13    17 ar  
    29    14    19 1   
    30    14    30 1   
    31    14    31 1   
    32    15    19 1   
    33    15    32 1   
    34    15    33 1   
    35    16    18 1   
    36    16    34 1   
    37    17    35 1   
    38    18    36 1   
    39    19    37 1   
    40    19    38 1   
@<TRIPOS>SUBSTRUCTURE
     1 S42         1 TEMP              0 ****  ****    0 ROOT
