@<TRIPOS>MOLECULE
S24
   27    28     1     0     1 
SMALL
USER_CHARGES
@<TRIPOS>ATOM
  1 O1     -1.055000   -0.520000   -0.725000 o     1 S24    -0.6031 ****
  2 C1     -0.079000    0.009000   -0.211000 c     1 S24     0.7671 ****
  3 N1      0.945000    0.620000   -0.918000 ns    1 S24    -0.4581 ****
  4 N2      0.162000    0.086000    1.152000 ns    1 S24    -0.4591 ****
  5 C2      0.992000    0.820000   -2.314000 ca    1 S24    -0.0557 ****
  6 C3     -0.599000   -0.515000    2.176000 ca    1 S24     0.0556 ****
  7 C4     -0.101000    0.720000   -3.171000 ca    1 S24     0.3952 ****
  8 C5      2.216000    1.181000   -2.882000 ca    1 S24    -0.1470 ****
  9 C6     -0.446000   -0.014000    3.475000 ca    1 S24    -0.1545 ****
 10 C7     -1.452000   -1.600000    1.964000 ca    1 S24    -0.1545 ****
 11 N3     -0.041000    0.944000   -4.510000 nb    1 S24    -0.6460 ****
 12 C8      2.307000    1.410000   -4.254000 ca    1 S24    -0.2233 ****
 13 C9     -1.152000   -0.578000    4.541000 ca    1 S24    -0.1085 ****
 14 C10    -2.158000   -2.163000    3.031000 ca    1 S24    -0.1085 ****
 15 C11     1.161000    1.279000   -5.019000 ca    1 S24     0.3722 ****
 16 C12    -2.009000   -1.652000    4.318000 ca    1 S24    -0.1480 ****
 17 H1      1.783000    0.838000   -0.404000 hn    1 S24     0.3075 ****
 18 H2      0.869000    0.739000    1.451000 hn    1 S24     0.3065 ****
 19 H3     -1.095000    0.465000   -2.817000 h4    1 S24     0.0601 ****
 20 H4      3.110000    1.281000   -2.273000 ha    1 S24     0.1340 ****
 21 H5      0.214000    0.825000    3.675000 ha    1 S24     0.1485 ****
 22 H6     -1.582000   -2.034000    0.977000 ha    1 S24     0.1485 ****
 23 H7      3.249000    1.684000   -4.715000 ha    1 S24     0.1430 ****
 24 H8     -1.034000   -0.177000    5.545000 ha    1 S24     0.1350 ****
 25 H9     -2.823000   -3.004000    2.851000 ha    1 S24     0.1350 ****
 26 H10     1.179000    1.447000   -6.092000 h4    1 S24     0.0241 ****
 27 H11    -2.561000   -2.092000    5.145000 ha    1 S24     0.1340 ****
@<TRIPOS>BOND
    1     1     2 1
    2     2     3 1
    3     2     4 1
    4     3     5 1
    5     3    17 1
    6     4     6 1
    7     4    18 1
    8     5     7 1
    9     5     8 1
   10     6     9 1
   11     6    10 1
   12     7    11 1
   13     7    19 1
   14     8    12 1
   15     8    20 1
   16     9    13 1
   17     9    21 1
   18    10    14 1
   19    10    22 1
   20    11    15 1
   21    12    15 1
   22    12    23 1
   23    13    16 1
   24    13    24 1
   25    14    16 1
   26    14    25 1
   27    15    26 1
   28    16    27 1
@<TRIPOS>SUBSTRUCTURE
      1  S24              1 ****               0 ****  **** 
