@<TRIPOS>MOLECULE
S31
   30    32     1     0     1 
SMALL
USER_CHARGES
@<TRIPOS>ATOM
  1 O1     -1.699000   -0.427000   -0.391000 o     1 S31    -0.6021 ****
  2 C1     -0.593000   -0.179000    0.070000 c     1 S31     0.7691 ****
  3 N1      0.430000    0.444000   -0.631000 ns    1 S31    -0.4511 ****
  4 N2     -0.186000   -0.477000    1.363000 ns    1 S31    -0.4571 ****
  5 C2      0.396000    0.970000   -1.904000 cc    1 S31    -0.0237 ****
  6 C3     -0.914000   -1.203000    2.327000 ca    1 S31     0.0546 ****
  7 C4      1.619000    1.490000   -2.412000 cc    1 S31    -0.0743 ****
  8 C5     -0.688000    1.050000   -2.711000 cd    1 S31     0.3662 ****
  9 C6     -0.531000   -1.065000    3.667000 ca    1 S31    -0.1535 ****
 10 C7     -1.956000   -2.075000    2.007000 ca    1 S31    -0.1535 ****
 11 N3      1.560000    2.017000   -3.680000 na    1 S31     0.0452 ****
 12 C8      2.929000    1.638000   -2.009000 cd    1 S31    -0.3386 ****
 13 N4     -0.719000    1.589000   -3.991000 nd    1 S31    -0.6600 ****
 14 C9     -1.194000   -1.774000    4.673000 ca    1 S31    -0.1085 ****
 15 C10    -2.619000   -2.784000    3.013000 ca    1 S31    -0.1085 ****
 16 N5      2.742000    2.499000   -4.122000 nc    1 S31    -0.5501 ****
 17 C11     0.404000    2.062000   -4.451000 cc    1 S31     0.5214 ****
 18 C12     3.570000    2.263000   -3.100000 cd    1 S31     0.3765 ****
 19 C13    -2.240000   -2.633000    4.345000 ca    1 S31    -0.1460 ****
 20 H1      1.325000    0.465000   -0.170000 hn    1 S31     0.3165 ****
 21 H2      0.654000   -0.029000    1.692000 hn    1 S31     0.3085 ****
 22 H3     -1.656000    0.680000   -2.384000 h4    1 S31     0.0721 ****
 23 H4      0.279000   -0.399000    3.950000 ha    1 S31     0.1485 ****
 24 H5     -2.270000   -2.230000    0.979000 ha    1 S31     0.1485 ****
 25 H6      3.374000    1.343000   -1.071000 ha    1 S31     0.1640 ****
 26 H7     -0.896000   -1.654000    5.711000 ha    1 S31     0.1350 ****
 27 H8     -3.433000   -3.456000    2.751000 ha    1 S31     0.1350 ****
 28 H9      0.463000    2.505000   -5.457000 h5    1 S31     0.0741 ****
 29 H10     4.609000    2.556000   -3.190000 h4    1 S31     0.0568 ****
 30 H11    -2.759000   -3.184000    5.124000 ha    1 S31     0.1350 ****
@<TRIPOS>BOND
    1     1     2 1
    2     2     3 1
    3     2     4 1
    4     3     5 1
    5     3    20 1
    6     4     6 1
    7     4    21 1
    8     5     7 1
    9     5     8 1
   10     6     9 1
   11     6    10 1
   12     7    11 1
   13     7    12 1
   14     8    13 1
   15     8    22 1
   16     9    14 1
   17     9    23 1
   18    10    15 1
   19    10    24 1
   20    11    16 1
   21    11    17 1
   22    12    18 1
   23    12    25 1
   24    13    17 1
   25    14    19 1
   26    14    26 1
   27    15    19 1
   28    15    27 1
   29    16    18 1
   30    17    28 1
   31    18    29 1
   32    19    30 1
@<TRIPOS>SUBSTRUCTURE
      1  S31              1 ****               0 ****  **** 
