@<TRIPOS>MOLECULE
S45
   37    39     1     0     0
SMALL
bcc


@<TRIPOS>ATOM
      1 O1          -1.3230     0.6500     0.4910 o          1 S45      -0.567100
      2 C1          -0.8200    -0.4590     0.6400 c          1 S45       0.673100
      3 N1          -0.4890    -1.0210     1.8610 ns         1 S45      -0.487100
      4 C2          -0.5730    -1.4170    -0.5140 c3         1 S45      -0.144400
      5 C3          -0.4780    -0.2710     3.0470 ca         1 S45       0.014300
      6 C4          -0.5370    -0.7260    -1.8860 c3         1 S45      -0.060700
      7 C5           0.2870     0.8940     3.2100 ca         1 S45       0.083400
      8 C6          -1.1880    -0.6840     4.1690 ca         1 S45       0.335200
      9 C7          -0.5990    -1.7770    -3.0070 c3         1 S45      -0.076900
     10 C8           0.7230     0.1440    -2.0410 c3         1 S45      -0.076900
     11 N2           1.1650     1.5240     2.3490 nc         1 S45      -0.545100
     12 C9           0.2440     1.5640     4.4290 ca         1 S45      -0.182500
     13 N3          -1.2150    -0.0340     5.3610 nb         1 S45      -0.638000
     14 C10         -0.5170    -1.1370    -4.3910 c3         1 S45      -0.074900
     15 C11          0.8030     0.7830    -3.4260 c3         1 S45      -0.074900
     16 C12          1.5950     2.5790     3.0000 cd         1 S45       0.425700
     17 N4           1.0640     2.6490     4.2560 na         1 S45      -0.279300
     18 C13         -0.5100     1.1140     5.5000 ca         1 S45       0.387200
     19 C14          0.7250    -0.2630    -4.5330 c3         1 S45      -0.077400
     20 H1          -0.2830    -2.0090     1.9200 hn         1 S45       0.319500
     21 H2          -1.3870    -2.1530    -0.4880 hc         1 S45       0.061700
     22 H3           0.3640    -1.9610    -0.3400 hc         1 S45       0.061700
     23 H4          -1.4180    -0.0770    -1.9830 hc         1 S45       0.077700
     24 H5          -1.7970    -1.5840     4.1400 h4         1 S45       0.024100
     25 H6           0.2240    -2.4940    -2.8920 hc         1 S45       0.042950
     26 H7          -1.5320    -2.3480    -2.9320 hc         1 S45       0.042950
     27 H8           1.6190    -0.4670    -1.8740 hc         1 S45       0.042950
     28 H9           0.7360     0.9370    -1.2840 hc         1 S45       0.042950
     29 H10         -1.4130    -0.5290    -4.5660 hc         1 S45       0.041200
     30 H11         -0.5060    -1.9190    -5.1590 hc         1 S45       0.041200
     31 H12         -0.0170     1.5020    -3.5430 hc         1 S45       0.041200
     32 H13          1.7380     1.3460    -3.5170 hc         1 S45       0.041200
     33 H14          2.2860     3.3200     2.6180 h5         1 S45       0.071800
     34 H15          1.2540     3.3680     4.9390 hn         1 S45       0.309700
     35 H16         -0.5630     1.6160     6.4580 h4         1 S45       0.026100
     36 H17          1.6210    -0.8940    -4.5030 hc         1 S45       0.038200
     37 H18          0.7170     0.2340    -5.5100 hc         1 S45       0.038200
@<TRIPOS>BOND
     1     1     2 2   
     2     2     3 1   
     3     2     4 1   
     4     3     5 1   
     5     3    20 1   
     6     4     6 1   
     7     4    21 1   
     8     4    22 1   
     9     5     7 ar  
    10     5     8 ar  
    11     6     9 1   
    12     6    10 1   
    13     6    23 1   
    14     7    11 1   
    15     7    12 ar  
    16     8    13 ar  
    17     8    24 1   
    18     9    14 1   
    19     9    25 1   
    20     9    26 1   
    21    10    15 1   
    22    10    27 1   
    23    10    28 1   
    24    11    16 2   
    25    12    17 1   
    26    12    18 ar  
    27    13    18 ar  
    28    14    19 1   
    29    14    29 1   
    30    14    30 1   
    31    15    19 1   
    32    15    31 1   
    33    15    32 1   
    34    16    17 1   
    35    16    33 1   
    36    17    34 1   
    37    18    35 1   
    38    19    36 1   
    39    19    37 1   
@<TRIPOS>SUBSTRUCTURE
     1 S45         1 TEMP              0 ****  ****    0 ROOT
