@<TRIPOS>MOLECULE
S46
   37    39     1     0     1 
SMALL
USER_CHARGES
@<TRIPOS>ATOM
  1 O1     -1.405000    0.040000    1.015000 o     1 S46    -0.5841 ****
  2 C1     -0.940000    0.043000   -0.118000 c     1 S46     0.6671 ****
  3 N1     -1.041000   -0.997000   -1.026000 ns    1 S46    -0.4691 ****
  4 C2     -0.221000    1.246000   -0.712000 c3    1 S46    -0.1484 ****
  5 C3     -1.624000   -2.252000   -0.761000 ca    1 S46     0.0303 ****
  6 C4      0.215000    2.283000    0.341000 c3    1 S46    -0.0577 ****
  7 C5     -1.516000   -2.971000    0.443000 ca    1 S46    -0.2049 ****
  8 C6     -2.314000   -2.908000   -1.783000 ca    1 S46     0.3012 ****
  9 C7      0.624000    3.609000   -0.324000 c3    1 S46    -0.0774 ****
 10 C8      1.357000    1.770000    1.238000 c3    1 S46    -0.0774 ****
 11 C9     -2.107000   -4.231000    0.525000 ca    1 S46    -0.1515 ****
 12 C10    -0.907000   -2.807000    1.711000 cc    1 S46     0.3828 ****
 13 N2     -2.888000   -4.133000   -1.694000 nb    1 S46    -0.6190 ****
 14 C11     1.960000    3.522000   -1.058000 c3    1 S46    -0.0769 ****
 15 C12     2.702000    1.689000    0.516000 c3    1 S46    -0.0769 ****
 16 N3     -1.839000   -4.688000    1.787000 na    1 S46    -0.0121 ****
 17 C13    -2.798000   -4.809000   -0.528000 ca    1 S46     0.3652 ****
 18 N4     -1.088000   -3.855000    2.522000 nd    1 S46    -0.5161 ****
 19 C14     3.070000    3.013000   -0.144000 c3    1 S46    -0.0774 ****
 20 H1     -0.781000   -0.808000   -1.986000 hn    1 S46     0.3185 ****
 21 H2     -0.925000    1.710000   -1.414000 hc    1 S46     0.0697 ****
 22 H3      0.635000    0.895000   -1.299000 hc    1 S46     0.0697 ****
 23 H4     -0.647000    2.494000    0.987000 hc    1 S46     0.0677 ****
 24 H5     -2.441000   -2.439000   -2.756000 h4    1 S46     0.0201 ****
 25 H6      0.700000    4.383000    0.451000 hc    1 S46     0.0464 ****
 26 H7     -0.156000    3.943000   -1.018000 hc    1 S46     0.0464 ****
 27 H8      1.462000    2.452000    2.092000 hc    1 S46     0.0464 ****
 28 H9      1.112000    0.789000    1.659000 hc    1 S46     0.0464 ****
 29 H10    -0.331000   -1.966000    2.075000 h4    1 S46     0.0818 ****
 30 H11     2.230000    4.511000   -1.444000 hc    1 S46     0.0382 ****
 31 H12     1.867000    2.861000   -1.928000 hc    1 S46     0.0382 ****
 32 H13     2.675000    0.895000   -0.239000 hc    1 S46     0.0382 ****
 33 H14     3.483000    1.410000    1.233000 hc    1 S46     0.0382 ****
 34 H15    -2.125000   -5.567000    2.203000 hn    1 S46     0.3207 ****
 35 H16    -3.267000   -5.784000   -0.482000 h4    1 S46     0.0301 ****
 36 H17     3.996000    2.895000   -0.718000 hc    1 S46     0.0427 ****
 37 H18     3.271000    3.762000    0.632000 hc    1 S46     0.0427 ****
@<TRIPOS>BOND
    1     1     2 1
    2     2     3 1
    3     2     4 1
    4     3     5 1
    5     3    20 1
    6     4     6 1
    7     4    21 1
    8     4    22 1
    9     5     7 1
   10     5     8 1
   11     6     9 1
   12     6    10 1
   13     6    23 1
   14     7    11 1
   15     7    12 1
   16     8    13 1
   17     8    24 1
   18     9    14 1
   19     9    25 1
   20     9    26 1
   21    10    15 1
   22    10    27 1
   23    10    28 1
   24    11    16 1
   25    11    17 1
   26    12    18 1
   27    12    29 1
   28    13    17 1
   29    14    19 1
   30    14    30 1
   31    14    31 1
   32    15    19 1
   33    15    32 1
   34    15    33 1
   35    16    18 1
   36    16    34 1
   37    17    35 1
   38    19    36 1
   39    19    37 1
@<TRIPOS>SUBSTRUCTURE
      1  S46              1 ****               0 ****  **** 
