
Actelion Java MolfileCreator 1.0

 30 32  0  0  0  0  0  0  0  0999 V2000
   -0.8179    0.0089   -0.7471 O   0  0  0  0  0  0  0  0  0  0  0  0
   -0.2304   -0.0380    0.3242 C   0  0  0  0  0  0  0  0  0  0  0  0
    0.2104    1.0781    1.0148 N   0  0  0  0  0  0  0  0  0  0  0  0
    0.0603   -1.1893    1.0353 N   0  0  0  0  0  0  0  0  0  0  0  0
    0.3282    2.3768    0.5485 C   0  0  0  0  0  0  0  0  0  0  0  0
   -0.3433   -2.5009    0.7144 C   0  0  0  0  0  0  0  0  0  0  0  0
    0.5741    2.7384   -0.7894 N   0  0  0  0  0  0  0  0  0  0  0  0
    0.2458    3.3954    1.4402 C   0  0  0  0  0  0  0  0  0  0  0  0
   -1.4262   -2.7881   -0.1189 C   0  0  0  0  0  0  0  0  0  0  0  0
    0.3614   -3.5583    1.3029 C   0  0  0  0  0  0  0  0  0  0  0  0
    0.6626    4.0713   -1.1322 C   0  0  0  0  0  0  0  0  0  0  0  0
    0.8656    2.0522   -1.9434 C   0  0  0  0  0  0  0  0  0  0  0  0
    0.3313    4.7450    1.1392 N   0  0  0  0  0  0  0  0  0  0  0  0
   -1.7877   -4.1138   -0.3763 C   0  0  0  0  0  0  0  0  0  0  0  0
   -0.0005   -4.8831    1.0453 C   0  0  0  0  0  0  0  0  0  0  0  0
    0.9134    4.2705   -2.4065 N   0  0  0  0  0  0  0  0  0  0  0  0
    0.5201    5.0671   -0.1112 C   0  0  0  0  0  0  0  0  0  0  0  0
    1.0334    3.0074   -2.9222 C   0  0  0  0  0  0  0  0  0  0  0  0
   -1.0747   -5.1606    0.2038 C   0  0  0  0  0  0  0  0  0  0  0  0
    0.2267    0.9568    2.0183 H   0  0  0  0  0  0  0  0  0  0  0  0
    0.7503   -1.1013    1.7659 H   0  0  0  0  0  0  0  0  0  0  0  0
    0.0708    3.1955    2.4948 H   0  0  0  0  0  0  0  0  0  0  0  0
   -2.0140   -1.9980   -0.5777 H   0  0  0  0  0  0  0  0  0  0  0  0
    1.2049   -3.3694    1.9610 H   0  0  0  0  0  0  0  0  0  0  0  0
    0.9264    0.9761   -1.9883 H   0  0  0  0  0  0  0  0  0  0  0  0
   -2.6297   -4.3248   -1.0310 H   0  0  0  0  0  0  0  0  0  0  0  0
    0.5566   -5.6980    1.5003 H   0  0  0  0  0  0  0  0  0  0  0  0
    0.5878    6.1294   -0.3951 H   0  0  0  0  0  0  0  0  0  0  0  0
    1.2522    2.8446   -3.9701 H   0  0  0  0  0  0  0  0  0  0  0  0
   -1.3580   -6.1900    0.0003 H   0  0  0  0  0  0  0  0  0  0  0  0
  1  2  2  0  0  0  0
  2  3  1  0  0  0  0
  2  4  1  0  0  0  0
  3  5  1  0  0  0  0
  4  6  1  0  0  0  0
  5  7  1  0  0  0  0
  5  8  2  0  0  0  0
  6  9  2  0  0  0  0
  6 10  1  0  0  0  0
  7 11  1  0  0  0  0
  7 12  1  0  0  0  0
  8 13  1  0  0  0  0
  9 14  1  0  0  0  0
 10 15  2  0  0  0  0
 11 16  2  0  0  0  0
 11 17  1  0  0  0  0
 12 18  2  0  0  0  0
 14 19  2  0  0  0  0
 13 17  2  0  0  0  0
 15 19  1  0  0  0  0
 16 18  1  0  0  0  0
  3 20  1  0  0  0  0
  4 21  1  0  0  0  0
  8 22  1  0  0  0  0
  9 23  1  0  0  0  0
 10 24  1  0  0  0  0
 12 25  1  0  0  0  0
 14 26  1  0  0  0  0
 15 27  1  0  0  0  0
 17 28  1  0  0  0  0
 18 29  1  0  0  0  0
 19 30  1  0  0  0  0
M  END
>  <ID>
9

>  <Stereo Isomer>
1

>  <Energy>
10.784

>  <Error>


$$$$

Actelion Java MolfileCreator 1.0

 30 32  0  0  0  0  0  0  0  0999 V2000
   -0.4692   -0.5433   -1.6120 O   0  0  0  0  0  0  0  0  0  0  0  0
   -0.1642    0.0906   -0.6100 C   0  0  0  0  0  0  0  0  0  0  0  0
    0.0195   -0.4741    0.6363 N   0  0  0  0  0  0  0  0  0  0  0  0
    0.0367    1.4600   -0.5592 N   0  0  0  0  0  0  0  0  0  0  0  0
   -0.1329   -1.8294    0.9853 C   0  0  0  0  0  0  0  0  0  0  0  0
   -0.0008    2.3684   -1.6362 C   0  0  0  0  0  0  0  0  0  0  0  0
    0.1691   -2.2068    2.3031 C   0  0  0  0  0  0  0  0  0  0  0  0
   -0.5652   -2.8662    0.1651 C   0  0  0  0  0  0  0  0  0  0  0  0
    0.0750    1.9842   -2.9762 C   0  0  0  0  0  0  0  0  0  0  0  0
   -0.0844    3.7320   -1.3258 C   0  0  0  0  0  0  0  0  0  0  0  0
    0.6126   -1.4291    3.3567 N   0  0  0  0  0  0  0  0  0  0  0  0
    0.0313   -3.5312    2.6954 C   0  0  0  0  0  0  0  0  0  0  0  0
   -0.7003   -4.1660    0.5554 N   0  0  0  0  0  0  0  0  0  0  0  0
    0.0510    2.9462   -3.9910 C   0  0  0  0  0  0  0  0  0  0  0  0
   -0.1083    4.6931   -2.3399 C   0  0  0  0  0  0  0  0  0  0  0  0
    0.7436   -2.2624    4.3643 C   0  0  0  0  0  0  0  0  0  0  0  0
    0.4051   -3.5407    4.0136 N   0  0  0  0  0  0  0  0  0  0  0  0
   -0.4018   -4.5168    1.8273 C   0  0  0  0  0  0  0  0  0  0  0  0
   -0.0421    4.2992   -3.6736 C   0  0  0  0  0  0  0  0  0  0  0  0
    0.3483    0.1078    1.3965 H   0  0  0  0  0  0  0  0  0  0  0  0
    0.1407    1.8635    0.3585 H   0  0  0  0  0  0  0  0  0  0  0  0
   -0.8345   -2.6988   -0.8735 H   0  0  0  0  0  0  0  0  0  0  0  0
    0.1625    0.9407   -3.2635 H   0  0  0  0  0  0  0  0  0  0  0  0
   -0.1397    4.0654   -0.2931 H   0  0  0  0  0  0  0  0  0  0  0  0
    0.1071    2.6324   -5.0303 H   0  0  0  0  0  0  0  0  0  0  0  0
   -0.1797    5.7479   -2.0881 H   0  0  0  0  0  0  0  0  0  0  0  0
    1.0756   -2.0047    5.3618 H   0  0  0  0  0  0  0  0  0  0  0  0
    0.4275   -4.3469    4.6219 H   0  0  0  0  0  0  0  0  0  0  0  0
   -0.5213   -5.5586    2.0962 H   0  0  0  0  0  0  0  0  0  0  0  0
   -0.0615    5.0436   -4.4652 H   0  0  0  0  0  0  0  0  0  0  0  0
  1  2  2  0  0  0  0
  2  3  1  0  0  0  0
  2  4  1  0  0  0  0
  3  5  1  0  0  0  0
  4  6  1  0  0  0  0
  5  7  2  0  0  0  0
  5  8  1  0  0  0  0
  6  9  2  0  0  0  0
  6 10  1  0  0  0  0
  7 11  1  0  0  0  0
  7 12  1  0  0  0  0
  8 13  2  0  0  0  0
  9 14  1  0  0  0  0
 10 15  2  0  0  0  0
 11 16  2  0  0  0  0
 12 17  1  0  0  0  0
 12 18  2  0  0  0  0
 14 19  2  0  0  0  0
 13 18  1  0  0  0  0
 15 19  1  0  0  0  0
 16 17  1  0  0  0  0
  3 20  1  0  0  0  0
  4 21  1  0  0  0  0
  8 22  1  0  0  0  0
  9 23  1  0  0  0  0
 10 24  1  0  0  0  0
 14 25  1  0  0  0  0
 15 26  1  0  0  0  0
 16 27  1  0  0  0  0
 17 28  1  0  0  0  0
 18 29  1  0  0  0  0
 19 30  1  0  0  0  0
M  END
>  <ID>
10

>  <Stereo Isomer>
1

>  <Energy>
-23.086

>  <Error>


$$$$

Actelion Java MolfileCreator 1.0

 30 32  0  0  0  0  0  0  0  0999 V2000
   -1.0644   -0.4446    1.1948 O   0  0  0  0  0  0  0  0  0  0  0  0
   -0.3014    0.1342    0.4330 C   0  0  0  0  0  0  0  0  0  0  0  0
    0.6185   -0.5041   -0.3832 N   0  0  0  0  0  0  0  0  0  0  0  0
   -0.2308    1.5075    0.2629 N   0  0  0  0  0  0  0  0  0  0  0  0
    0.8934   -1.8880   -0.4028 C   0  0  0  0  0  0  0  0  0  0  0  0
   -1.0817    2.4718    0.8405 C   0  0  0  0  0  0  0  0  0  0  0  0
    1.6044   -2.4507   -1.4789 C   0  0  0  0  0  0  0  0  0  0  0  0
    0.5471   -2.7891    0.6064 C   0  0  0  0  0  0  0  0  0  0  0  0
   -0.6291    3.7967    0.8767 C   0  0  0  0  0  0  0  0  0  0  0  0
   -2.3550    2.1771    1.3318 C   0  0  0  0  0  0  0  0  0  0  0  0
    1.8927   -3.8122   -1.4705 C   0  0  0  0  0  0  0  0  0  0  0  0
    2.1664   -1.9952   -2.6954 C   0  0  0  0  0  0  0  0  0  0  0  0
    0.8370   -4.1188    0.6071 N   0  0  0  0  0  0  0  0  0  0  0  0
   -1.4310    4.8070    1.4142 C   0  0  0  0  0  0  0  0  0  0  0  0
   -3.1569    3.1883    1.8696 C   0  0  0  0  0  0  0  0  0  0  0  0
    2.5755   -4.0564   -2.6302 N   0  0  0  0  0  0  0  0  0  0  0  0
    1.5106   -4.6489   -0.4359 C   0  0  0  0  0  0  0  0  0  0  0  0
    2.7622   -2.9652   -3.3932 N   0  0  0  0  0  0  0  0  0  0  0  0
   -2.6950    4.5018    1.9124 C   0  0  0  0  0  0  0  0  0  0  0  0
    1.0438    0.0508   -1.1089 H   0  0  0  0  0  0  0  0  0  0  0  0
    0.5828    1.8645   -0.2128 H   0  0  0  0  0  0  0  0  0  0  0  0
    0.0155   -2.4689    1.4984 H   0  0  0  0  0  0  0  0  0  0  0  0
    0.3541    4.0611    0.4975 H   0  0  0  0  0  0  0  0  0  0  0  0
   -2.7542    1.1672    1.3022 H   0  0  0  0  0  0  0  0  0  0  0  0
    2.1656   -0.9935   -3.1040 H   0  0  0  0  0  0  0  0  0  0  0  0
   -1.0684    5.8311    1.4452 H   0  0  0  0  0  0  0  0  0  0  0  0
   -4.1444    2.9448    2.2537 H   0  0  0  0  0  0  0  0  0  0  0  0
    2.9433   -4.9421   -2.9603 H   0  0  0  0  0  0  0  0  0  0  0  0
    1.7199   -5.7109   -0.4027 H   0  0  0  0  0  0  0  0  0  0  0  0
   -3.3207    5.2848    2.3325 H   0  0  0  0  0  0  0  0  0  0  0  0
  1  2  2  0  0  0  0
  2  3  1  0  0  0  0
  2  4  1  0  0  0  0
  3  5  1  0  0  0  0
  4  6  1  0  0  0  0
  5  7  2  0  0  0  0
  5  8  1  0  0  0  0
  6  9  2  0  0  0  0
  6 10  1  0  0  0  0
  7 11  1  0  0  0  0
  7 12  1  0  0  0  0
  8 13  2  0  0  0  0
  9 14  1  0  0  0  0
 10 15  2  0  0  0  0
 11 16  1  0  0  0  0
 11 17  2  0  0  0  0
 12 18  2  0  0  0  0
 14 19  2  0  0  0  0
 13 17  1  0  0  0  0
 15 19  1  0  0  0  0
 16 18  1  0  0  0  0
  3 20  1  0  0  0  0
  4 21  1  0  0  0  0
  8 22  1  0  0  0  0
  9 23  1  0  0  0  0
 10 24  1  0  0  0  0
 12 25  1  0  0  0  0
 14 26  1  0  0  0  0
 15 27  1  0  0  0  0
 16 28  1  0  0  0  0
 17 29  1  0  0  0  0
 19 30  1  0  0  0  0
M  END
>  <ID>
11

>  <Stereo Isomer>
1

>  <Energy>
-8.5763

>  <Error>


$$$$

Actelion Java MolfileCreator 1.0

 30 32  0  0  0  0  0  0  0  0999 V2000
   -1.6990   -0.4275   -0.3912 O   0  0  0  0  0  0  0  0  0  0  0  0
   -0.5934   -0.1789    0.0704 C   0  0  0  0  0  0  0  0  0  0  0  0
    0.4297    0.4438   -0.6306 N   0  0  0  0  0  0  0  0  0  0  0  0
   -0.1857   -0.4770    1.3625 N   0  0  0  0  0  0  0  0  0  0  0  0
    0.3960    0.9699   -1.9037 C   0  0  0  0  0  0  0  0  0  0  0  0
   -0.9141   -1.2033    2.3272 C   0  0  0  0  0  0  0  0  0  0  0  0
    1.6195    1.4899   -2.4120 C   0  0  0  0  0  0  0  0  0  0  0  0
   -0.6876    1.0499   -2.7109 C   0  0  0  0  0  0  0  0  0  0  0  0
   -0.5311   -1.0650    3.6673 C   0  0  0  0  0  0  0  0  0  0  0  0
   -1.9563   -2.0755    2.0071 C   0  0  0  0  0  0  0  0  0  0  0  0
    1.5597    2.0169   -3.6799 N   0  0  0  0  0  0  0  0  0  0  0  0
    2.9286    1.6380   -2.0089 C   0  0  0  0  0  0  0  0  0  0  0  0
   -0.7188    1.5892   -3.9908 N   0  0  0  0  0  0  0  0  0  0  0  0
   -1.1942   -1.7738    4.6726 C   0  0  0  0  0  0  0  0  0  0  0  0
   -2.6195   -2.7844    3.0132 C   0  0  0  0  0  0  0  0  0  0  0  0
    2.7416    2.4988   -4.1215 N   0  0  0  0  0  0  0  0  0  0  0  0
    0.4038    2.0615   -4.4512 C   0  0  0  0  0  0  0  0  0  0  0  0
    3.5702    2.2634   -3.1000 C   0  0  0  0  0  0  0  0  0  0  0  0
   -2.2402   -2.6327    4.3450 C   0  0  0  0  0  0  0  0  0  0  0  0
    1.3250    0.4647   -0.1699 H   0  0  0  0  0  0  0  0  0  0  0  0
    0.6540   -0.0285    1.6921 H   0  0  0  0  0  0  0  0  0  0  0  0
   -1.6556    0.6799   -2.3839 H   0  0  0  0  0  0  0  0  0  0  0  0
    0.2792   -0.3992    3.9503 H   0  0  0  0  0  0  0  0  0  0  0  0
   -2.2704   -2.2302    0.9787 H   0  0  0  0  0  0  0  0  0  0  0  0
    3.3745    1.3429   -1.0707 H   0  0  0  0  0  0  0  0  0  0  0  0
   -0.8956   -1.6542    5.7108 H   0  0  0  0  0  0  0  0  0  0  0  0
   -3.4331   -3.4562    2.7511 H   0  0  0  0  0  0  0  0  0  0  0  0
    0.4627    2.5054   -5.4571 H   0  0  0  0  0  0  0  0  0  0  0  0
    4.6093    2.5564   -3.1903 H   0  0  0  0  0  0  0  0  0  0  0  0
   -2.7594   -3.1842    5.1244 H   0  0  0  0  0  0  0  0  0  0  0  0
  1  2  2  0  0  0  0
  2  3  1  0  0  0  0
  2  4  1  0  0  0  0
  3  5  1  0  0  0  0
  4  6  1  0  0  0  0
  5  7  1  0  0  0  0
  5  8  2  0  0  0  0
  6  9  2  0  0  0  0
  6 10  1  0  0  0  0
  7 11  1  0  0  0  0
  7 12  2  0  0  0  0
  8 13  1  0  0  0  0
  9 14  1  0  0  0  0
 10 15  2  0  0  0  0
 11 16  1  0  0  0  0
 11 17  1  0  0  0  0
 12 18  1  0  0  0  0
 14 19  2  0  0  0  0
 13 17  2  0  0  0  0
 15 19  1  0  0  0  0
 16 18  2  0  0  0  0
  3 20  1  0  0  0  0
  4 21  1  0  0  0  0
  8 22  1  0  0  0  0
  9 23  1  0  0  0  0
 10 24  1  0  0  0  0
 12 25  1  0  0  0  0
 14 26  1  0  0  0  0
 15 27  1  0  0  0  0
 17 28  1  0  0  0  0
 18 29  1  0  0  0  0
 19 30  1  0  0  0  0
M  END
>  <ID>
8

>  <Stereo Isomer>
1

>  <Energy>
21.803

>  <Error>


$$$$

Actelion Java MolfileCreator 1.0

 32 34  0  0  0  0  0  0  0  0999 V2000
   -0.5596   -0.8557   -0.3986 O   0  0  0  0  0  0  0  0  0  0  0  0
    0.5078   -0.4389    0.0314 C   0  0  0  0  0  0  0  0  0  0  0  0
    0.6816    0.0426    1.3203 N   0  0  0  0  0  0  0  0  0  0  0  0
    1.6937   -0.3641   -0.6776 N   0  0  0  0  0  0  0  0  0  0  0  0
   -0.3737    0.1366    2.2565 C   0  0  0  0  0  0  0  0  0  0  0  0
    1.9284   -0.8444   -1.9815 C   0  0  0  0  0  0  0  0  0  0  0  0
   -1.5282    0.9400    2.0600 C   0  0  0  0  0  0  0  0  0  0  0  0
   -0.2393   -0.5513    3.4597 C   0  0  0  0  0  0  0  0  0  0  0  0
    3.0550   -0.3589   -2.6572 C   0  0  0  0  0  0  0  0  0  0  0  0
    1.1226   -1.7983   -2.6061 C   0  0  0  0  0  0  0  0  0  0  0  0
   -2.5064    0.9844    3.0751 C   0  0  0  0  0  0  0  0  0  0  0  0
   -1.7771    1.7367    0.9199 C   0  0  0  0  0  0  0  0  0  0  0  0
   -1.1487   -0.5203    4.4516 N   0  0  0  0  0  0  0  0  0  0  0  0
    3.3595   -0.8078   -3.9449 C   0  0  0  0  0  0  0  0  0  0  0  0
    1.4276   -2.2471   -3.8947 C   0  0  0  0  0  0  0  0  0  0  0  0
   -3.6365    1.7197    2.9854 N   0  0  0  0  0  0  0  0  0  0  0  0
   -2.2510    0.2381    4.2163 C   0  0  0  0  0  0  0  0  0  0  0  0
   -2.9406    2.4916    0.8173 C   0  0  0  0  0  0  0  0  0  0  0  0
    2.5440   -1.7514   -4.5643 C   0  0  0  0  0  0  0  0  0  0  0  0
   -3.8339    2.4466    1.8663 C   0  0  0  0  0  0  0  0  0  0  0  0
    1.6205    0.0144    1.6906 H   0  0  0  0  0  0  0  0  0  0  0  0
    2.4229    0.2030   -0.2734 H   0  0  0  0  0  0  0  0  0  0  0  0
    0.6261   -1.1758    3.6622 H   0  0  0  0  0  0  0  0  0  0  0  0
    3.7065    0.3792   -2.1976 H   0  0  0  0  0  0  0  0  0  0  0  0
    0.2517   -2.2179   -2.1105 H   0  0  0  0  0  0  0  0  0  0  0  0
   -1.0709    1.7637    0.0947 H   0  0  0  0  0  0  0  0  0  0  0  0
    4.2321   -0.4206   -4.4644 H   0  0  0  0  0  0  0  0  0  0  0  0
    0.7896   -2.9869   -4.3718 H   0  0  0  0  0  0  0  0  0  0  0  0
   -2.9766    0.2424    5.0265 H   0  0  0  0  0  0  0  0  0  0  0  0
   -3.1431    3.0909   -0.0629 H   0  0  0  0  0  0  0  0  0  0  0  0
    2.7773   -2.1021   -5.5662 H   0  0  0  0  0  0  0  0  0  0  0  0
   -4.7612    3.0117    1.8379 H   0  0  0  0  0  0  0  0  0  0  0  0
  1  2  2  0  0  0  0
  2  3  1  0  0  0  0
  2  4  1  0  0  0  0
  3  5  1  0  0  0  0
  4  6  1  0  0  0  0
  5  7  1  0  0  0  0
  5  8  2  0  0  0  0
  6  9  2  0  0  0  0
  6 10  1  0  0  0  0
  7 11  1  0  0  0  0
  7 12  2  0  0  0  0
  8 13  1  0  0  0  0
  9 14  1  0  0  0  0
 10 15  2  0  0  0  0
 11 16  2  0  0  0  0
 11 17  1  0  0  0  0
 12 18  1  0  0  0  0
 14 19  2  0  0  0  0
 16 20  1  0  0  0  0
 13 17  2  0  0  0  0
 15 19  1  0  0  0  0
 18 20  2  0  0  0  0
  3 21  1  0  0  0  0
  4 22  1  0  0  0  0
  8 23  1  0  0  0  0
  9 24  1  0  0  0  0
 10 25  1  0  0  0  0
 12 26  1  0  0  0  0
 14 27  1  0  0  0  0
 15 28  1  0  0  0  0
 17 29  1  0  0  0  0
 18 30  1  0  0  0  0
 19 31  1  0  0  0  0
 20 32  1  0  0  0  0
M  END
>  <ID>
6

>  <Stereo Isomer>
1

>  <Energy>
28.129

>  <Error>


$$$$

Actelion Java MolfileCreator 1.0

 31 33  0  0  0  0  0  0  0  0999 V2000
   -0.5079    0.9478    1.4701 O   0  0  0  0  0  0  0  0  0  0  0  0
   -0.2911    0.6065    0.3150 C   0  0  0  0  0  0  0  0  0  0  0  0
    0.5290   -0.4480   -0.0488 N   0  0  0  0  0  0  0  0  0  0  0  0
   -0.8238    1.2160   -0.8101 N   0  0  0  0  0  0  0  0  0  0  0  0
    1.3127   -1.2393    0.8178 C   0  0  0  0  0  0  0  0  0  0  0  0
   -1.7795    2.2517   -0.8350 C   0  0  0  0  0  0  0  0  0  0  0  0
    1.8667   -2.4486    0.3442 C   0  0  0  0  0  0  0  0  0  0  0  0
    1.6330   -0.9078    2.1348 C   0  0  0  0  0  0  0  0  0  0  0  0
   -1.9006    2.9931   -2.0170 C   0  0  0  0  0  0  0  0  0  0  0  0
   -2.6285    2.5397    0.2353 C   0  0  0  0  0  0  0  0  0  0  0  0
    2.6615   -3.2077    1.2063 C   0  0  0  0  0  0  0  0  0  0  0  0
    1.8180   -3.1617   -0.8929 C   0  0  0  0  0  0  0  0  0  0  0  0
    2.4106   -1.6526    2.9631 N   0  0  0  0  0  0  0  0  0  0  0  0
   -2.8436    4.0193   -2.1187 C   0  0  0  0  0  0  0  0  0  0  0  0
   -3.5718    3.5666    0.1332 C   0  0  0  0  0  0  0  0  0  0  0  0
    3.0710   -4.3268    0.5178 N   0  0  0  0  0  0  0  0  0  0  0  0
    2.9291   -2.8123    2.5095 C   0  0  0  0  0  0  0  0  0  0  0  0
    2.5672   -4.3078   -0.7549 C   0  0  0  0  0  0  0  0  0  0  0  0
   -3.6784    4.3070   -1.0419 C   0  0  0  0  0  0  0  0  0  0  0  0
    0.4783   -0.7611   -1.0048 H   0  0  0  0  0  0  0  0  0  0  0  0
   -0.3947    0.9869   -1.6925 H   0  0  0  0  0  0  0  0  0  0  0  0
    1.2779    0.0101    2.5941 H   0  0  0  0  0  0  0  0  0  0  0  0
   -1.2593    2.7907   -2.8702 H   0  0  0  0  0  0  0  0  0  0  0  0
   -2.5836    1.9744    1.1619 H   0  0  0  0  0  0  0  0  0  0  0  0
    1.2877   -2.8732   -1.7902 H   0  0  0  0  0  0  0  0  0  0  0  0
   -2.9251    4.5945   -3.0372 H   0  0  0  0  0  0  0  0  0  0  0  0
   -4.2232    3.7841    0.9760 H   0  0  0  0  0  0  0  0  0  0  0  0
    3.6582   -5.0552    0.9017 H   0  0  0  0  0  0  0  0  0  0  0  0
    3.5406   -3.3815    3.1987 H   0  0  0  0  0  0  0  0  0  0  0  0
    2.7815   -5.1102   -1.4485 H   0  0  0  0  0  0  0  0  0  0  0  0
   -4.4118    5.1055   -1.1169 H   0  0  0  0  0  0  0  0  0  0  0  0
  1  2  2  0  0  0  0
  2  3  1  0  0  0  0
  2  4  1  0  0  0  0
  3  5  1  0  0  0  0
  4  6  1  0  0  0  0
  5  7  2  0  0  0  0
  5  8  1  0  0  0  0
  6  9  2  0  0  0  0
  6 10  1  0  0  0  0
  7 11  1  0  0  0  0
  7 12  1  0  0  0  0
  8 13  2  0  0  0  0
  9 14  1  0  0  0  0
 10 15  2  0  0  0  0
 11 16  1  0  0  0  0
 11 17  2  0  0  0  0
 12 18  2  0  0  0  0
 14 19  2  0  0  0  0
 13 17  1  0  0  0  0
 15 19  1  0  0  0  0
 16 18  1  0  0  0  0
  3 20  1  0  0  0  0
  4 21  1  0  0  0  0
  8 22  1  0  0  0  0
  9 23  1  0  0  0  0
 10 24  1  0  0  0  0
 12 25  1  0  0  0  0
 14 26  1  0  0  0  0
 15 27  1  0  0  0  0
 16 28  1  0  0  0  0
 17 29  1  0  0  0  0
 18 30  1  0  0  0  0
 19 31  1  0  0  0  0
M  END
>  <ID>
7

>  <Stereo Isomer>
1

>  <Energy>
-11.816

>  <Error>


$$$$

Actelion Java MolfileCreator 1.0

 33 35  0  0  0  0  0  0  0  0999 V2000
    1.0510    0.3881   -0.1931 O   0  0  0  0  0  0  0  0  0  0  0  0
    0.0276    0.4804    0.4711 C   0  0  0  0  0  0  0  0  0  0  0  0
   -0.6926   -0.5878    0.9765 N   0  0  0  0  0  0  0  0  0  0  0  0
   -0.5707    1.6749    0.8467 N   0  0  0  0  0  0  0  0  0  0  0  0
   -0.5740   -1.9355    0.6686 C   0  0  0  0  0  0  0  0  0  0  0  0
   -0.0638    2.9722    0.6353 C   0  0  0  0  0  0  0  0  0  0  0  0
   -0.1436   -2.5272   -0.5647 N   0  0  0  0  0  0  0  0  0  0  0  0
   -0.9281   -2.7802    1.6774 C   0  0  0  0  0  0  0  0  0  0  0  0
   -0.9680    4.0399    0.6919 C   0  0  0  0  0  0  0  0  0  0  0  0
    1.2895    3.2396    0.4197 C   0  0  0  0  0  0  0  0  0  0  0  0
    0.0403   -3.9516   -0.6405 C   0  0  0  0  0  0  0  0  0  0  0  0
    0.0234   -1.8491   -1.7655 C   0  0  0  0  0  0  0  0  0  0  0  0
   -0.8168   -4.1472    1.5788 N   0  0  0  0  0  0  0  0  0  0  0  0
   -0.5266    5.3538    0.5150 C   0  0  0  0  0  0  0  0  0  0  0  0
    1.7306    4.5543    0.2427 C   0  0  0  0  0  0  0  0  0  0  0  0
    0.5222   -4.6229   -1.7512 N   0  0  0  0  0  0  0  0  0  0  0  0
   -0.3052   -4.7032    0.4317 C   0  0  0  0  0  0  0  0  0  0  0  0
    0.4430   -2.4233   -2.8978 C   0  0  0  0  0  0  0  0  0  0  0  0
    0.8233    5.6105    0.2885 C   0  0  0  0  0  0  0  0  0  0  0  0
    0.7128   -3.8720   -2.7892 C   0  0  0  0  0  0  0  0  0  0  0  0
   -1.1898   -0.3729    1.8270 H   0  0  0  0  0  0  0  0  0  0  0  0
   -1.5284    1.6124    1.1563 H   0  0  0  0  0  0  0  0  0  0  0  0
   -1.2751   -2.4468    2.6486 H   0  0  0  0  0  0  0  0  0  0  0  0
   -2.0264    3.8659    0.8646 H   0  0  0  0  0  0  0  0  0  0  0  0
    2.0263    2.4415    0.3922 H   0  0  0  0  0  0  0  0  0  0  0  0
   -0.2328   -0.7986   -1.7600 H   0  0  0  0  0  0  0  0  0  0  0  0
   -1.0434   -4.7432    2.3650 H   0  0  0  0  0  0  0  0  0  0  0  0
   -1.2363    6.1761    0.5528 H   0  0  0  0  0  0  0  0  0  0  0  0
    2.7862    4.7491    0.0706 H   0  0  0  0  0  0  0  0  0  0  0  0
   -0.2027   -5.7823    0.4350 H   0  0  0  0  0  0  0  0  0  0  0  0
    0.5741   -1.9071   -3.8354 H   0  0  0  0  0  0  0  0  0  0  0  0
    1.1697    6.6313    0.1494 H   0  0  0  0  0  0  0  0  0  0  0  0
    1.1043   -4.3392   -3.7079 H   0  0  0  0  0  0  0  0  0  0  0  0
  1  2  2  0  0  0  0
  2  3  1  0  0  0  0
  2  4  1  0  0  0  0
  3  5  1  0  0  0  0
  4  6  1  0  0  0  0
  5  7  1  0  0  0  0
  5  8  2  0  0  0  0
  6  9  2  0  0  0  0
  6 10  1  0  0  0  0
  7 11  1  0  0  0  0
  7 12  1  0  0  0  0
  8 13  1  0  0  0  0
  9 14  1  0  0  0  0
 10 15  2  0  0  0  0
 11 16  1  0  0  0  0
 11 17  2  0  0  0  0
 12 18  2  0  0  0  0
 14 19  2  0  0  0  0
 16 20  2  0  0  0  0
 13 17  1  0  0  0  0
 15 19  1  0  0  0  0
 18 20  1  0  0  0  0
  3 21  1  0  0  0  0
  4 22  1  0  0  0  0
  8 23  1  0  0  0  0
  9 24  1  0  0  0  0
 10 25  1  0  0  0  0
 12 26  1  0  0  0  0
 13 27  1  0  0  0  0
 14 28  1  0  0  0  0
 15 29  1  0  0  0  0
 17 30  1  0  0  0  0
 18 31  1  0  0  0  0
 19 32  1  0  0  0  0
 20 33  1  0  0  0  0
M  END
>  <ID>
12

>  <Stereo Isomer>
1

>  <Energy>
0.87245

>  <Error>


$$$$

Actelion Java MolfileCreator 1.0

 32 33  0  0  0  0  0  0  0  0999 V2000
    0.0161    1.0427   -0.2207 O   0  0  0  0  0  0  0  0  0  0  0  0
    0.8404    0.2239    0.1649 C   0  0  0  0  0  0  0  0  0  0  0  0
    0.5289   -0.9910    0.7573 N   0  0  0  0  0  0  0  0  0  0  0  0
    2.2160    0.3756    0.0738 N   0  0  0  0  0  0  0  0  0  0  0  0
   -0.7627   -1.5389    0.9146 C   0  0  0  0  0  0  0  0  0  0  0  0
    2.9081    1.5236   -0.3618 C   0  0  0  0  0  0  0  0  0  0  0  0
   -0.9592   -2.5386    1.8627 C   0  0  0  0  0  0  0  0  0  0  0  0
   -1.8635   -1.1725    0.1379 C   0  0  0  0  0  0  0  0  0  0  0  0
    2.3492    2.8031   -0.3585 C   0  0  0  0  0  0  0  0  0  0  0  0
    4.2370    1.3629   -0.7731 C   0  0  0  0  0  0  0  0  0  0  0  0
   -2.1366   -3.1621    2.0833 N   0  0  0  0  0  0  0  0  0  0  0  0
   -3.1157   -1.7732    0.3263 C   0  0  0  0  0  0  0  0  0  0  0  0
    3.1012    3.9040   -0.7794 C   0  0  0  0  0  0  0  0  0  0  0  0
    4.9882    2.4635   -1.1937 C   0  0  0  0  0  0  0  0  0  0  0  0
   -3.1769   -2.7602    1.3114 C   0  0  0  0  0  0  0  0  0  0  0  0
   -4.1794   -1.3848   -0.4658 N   0  0  0  0  0  0  0  0  0  0  0  0
    4.4189    3.7344   -1.1983 C   0  0  0  0  0  0  0  0  0  0  0  0
   -5.5080   -1.9373   -0.3557 C   0  0  0  0  0  0  0  0  0  0  0  0
    1.2788   -1.4571    1.2445 H   0  0  0  0  0  0  0  0  0  0  0  0
    2.7703   -0.4572    0.1960 H   0  0  0  0  0  0  0  0  0  0  0  0
   -0.1502   -2.8824    2.5002 H   0  0  0  0  0  0  0  0  0  0  0  0
   -1.7606   -0.4172   -0.6354 H   0  0  0  0  0  0  0  0  0  0  0  0
    1.3297    2.9743   -0.0247 H   0  0  0  0  0  0  0  0  0  0  0  0
    4.7034    0.3817   -0.7816 H   0  0  0  0  0  0  0  0  0  0  0  0
    2.6529    4.8944   -0.7769 H   0  0  0  0  0  0  0  0  0  0  0  0
    6.0165    2.3284   -1.5187 H   0  0  0  0  0  0  0  0  0  0  0  0
   -4.1034   -3.2854    1.5220 H   0  0  0  0  0  0  0  0  0  0  0  0
   -4.0374   -0.6173   -1.1136 H   0  0  0  0  0  0  0  0  0  0  0  0
    5.0001    4.5924   -1.5260 H   0  0  0  0  0  0  0  0  0  0  0  0
   -5.5065   -3.0129   -0.5593 H   0  0  0  0  0  0  0  0  0  0  0  0
   -5.9301   -1.7560    0.6380 H   0  0  0  0  0  0  0  0  0  0  0  0
   -6.1654   -1.4606   -1.0895 H   0  0  0  0  0  0  0  0  0  0  0  0
  1  2  2  0  0  0  0
  2  3  1  0  0  0  0
  2  4  1  0  0  0  0
  3  5  1  0  0  0  0
  4  6  1  0  0  0  0
  5  7  2  0  0  0  0
  5  8  1  0  0  0  0
  6  9  2  0  0  0  0
  6 10  1  0  0  0  0
  7 11  1  0  0  0  0
  8 12  2  0  0  0  0
  9 13  1  0  0  0  0
 10 14  2  0  0  0  0
 11 15  2  0  0  0  0
 12 16  1  0  0  0  0
 13 17  2  0  0  0  0
 16 18  1  0  0  0  0
 12 15  1  0  0  0  0
 14 17  1  0  0  0  0
  3 19  1  0  0  0  0
  4 20  1  0  0  0  0
  7 21  1  0  0  0  0
  8 22  1  0  0  0  0
  9 23  1  0  0  0  0
 10 24  1  0  0  0  0
 13 25  1  0  0  0  0
 14 26  1  0  0  0  0
 15 27  1  0  0  0  0
 16 28  1  0  0  0  0
 17 29  1  0  0  0  0
 18 30  1  0  0  0  0
 18 31  1  0  0  0  0
 18 32  1  0  0  0  0
M  END
>  <ID>
3

>  <Stereo Isomer>
1

>  <Energy>
3.5149

>  <Error>


$$$$

Actelion Java MolfileCreator 1.0

 35 36  0  0  0  0  0  0  0  0999 V2000
    1.3701    1.8719   -0.2406 O   0  0  0  0  0  0  0  0  0  0  0  0
    1.3591    0.7033    0.1223 C   0  0  0  0  0  0  0  0  0  0  0  0
    0.2142   -0.0685    0.2466 N   0  0  0  0  0  0  0  0  0  0  0  0
    2.4802   -0.0356    0.4671 N   0  0  0  0  0  0  0  0  0  0  0  0
   -1.1158    0.3756    0.0791 C   0  0  0  0  0  0  0  0  0  0  0  0
    3.8244    0.3750    0.3595 C   0  0  0  0  0  0  0  0  0  0  0  0
   -1.5094    1.7061    0.0830 C   0  0  0  0  0  0  0  0  0  0  0  0
   -2.1195   -0.5954   -0.0635 C   0  0  0  0  0  0  0  0  0  0  0  0
    4.2476    1.4048   -0.4830 C   0  0  0  0  0  0  0  0  0  0  0  0
    4.7779   -0.3246    1.1098 C   0  0  0  0  0  0  0  0  0  0  0  0
   -2.7939    2.1049   -0.0476 N   0  0  0  0  0  0  0  0  0  0  0  0
   -3.4740   -0.2539   -0.2111 C   0  0  0  0  0  0  0  0  0  0  0  0
    5.6018    1.7440   -0.5600 C   0  0  0  0  0  0  0  0  0  0  0  0
    6.1312    0.0147    1.0325 C   0  0  0  0  0  0  0  0  0  0  0  0
   -3.7223    1.1250   -0.1917 C   0  0  0  0  0  0  0  0  0  0  0  0
   -4.4744   -1.2085   -0.3591 N   0  0  0  0  0  0  0  0  0  0  0  0
    6.5427    1.0509    0.1981 C   0  0  0  0  0  0  0  0  0  0  0  0
   -4.1662   -2.6303   -0.4303 C   0  0  0  0  0  0  0  0  0  0  0  0
   -5.8687   -0.8062   -0.5065 C   0  0  0  0  0  0  0  0  0  0  0  0
    0.3469   -1.0618    0.3516 H   0  0  0  0  0  0  0  0  0  0  0  0
    2.3182   -0.8959    0.9661 H   0  0  0  0  0  0  0  0  0  0  0  0
   -0.8065    2.5230    0.2078 H   0  0  0  0  0  0  0  0  0  0  0  0
   -1.8273   -1.6399   -0.0631 H   0  0  0  0  0  0  0  0  0  0  0  0
    3.5441    1.9578   -1.0990 H   0  0  0  0  0  0  0  0  0  0  0  0
    4.4826   -1.1346    1.7708 H   0  0  0  0  0  0  0  0  0  0  0  0
    5.9174    2.5516   -1.2157 H   0  0  0  0  0  0  0  0  0  0  0  0
    6.8632   -0.5283    1.6245 H   0  0  0  0  0  0  0  0  0  0  0  0
   -4.7286    1.5186   -0.2968 H   0  0  0  0  0  0  0  0  0  0  0  0
    7.5943    1.3187    0.1369 H   0  0  0  0  0  0  0  0  0  0  0  0
   -5.0672   -3.2392   -0.5618 H   0  0  0  0  0  0  0  0  0  0  0  0
   -3.5101   -2.8445   -1.2811 H   0  0  0  0  0  0  0  0  0  0  0  0
   -3.6857   -2.9714    0.4933 H   0  0  0  0  0  0  0  0  0  0  0  0
   -6.2021   -0.2281    0.3623 H   0  0  0  0  0  0  0  0  0  0  0  0
   -6.0069   -0.2093   -1.4147 H   0  0  0  0  0  0  0  0  0  0  0  0
   -6.5376   -1.6700   -0.5858 H   0  0  0  0  0  0  0  0  0  0  0  0
  1  2  2  0  0  0  0
  2  3  1  0  0  0  0
  2  4  1  0  0  0  0
  3  5  1  0  0  0  0
  4  6  1  0  0  0  0
  5  7  2  0  0  0  0
  5  8  1  0  0  0  0
  6  9  2  0  0  0  0
  6 10  1  0  0  0  0
  7 11  1  0  0  0  0
  8 12  2  0  0  0  0
  9 13  1  0  0  0  0
 10 14  2  0  0  0  0
 11 15  2  0  0  0  0
 12 16  1  0  0  0  0
 13 17  2  0  0  0  0
 16 18  1  0  0  0  0
 16 19  1  0  0  0  0
 12 15  1  0  0  0  0
 14 17  1  0  0  0  0
  3 20  1  0  0  0  0
  4 21  1  0  0  0  0
  7 22  1  0  0  0  0
  8 23  1  0  0  0  0
  9 24  1  0  0  0  0
 10 25  1  0  0  0  0
 13 26  1  0  0  0  0
 14 27  1  0  0  0  0
 15 28  1  0  0  0  0
 17 29  1  0  0  0  0
 18 30  1  0  0  0  0
 18 31  1  0  0  0  0
 18 32  1  0  0  0  0
 19 33  1  0  0  0  0
 19 34  1  0  0  0  0
 19 35  1  0  0  0  0
M  END
>  <ID>
4

>  <Stereo Isomer>
1

>  <Energy>
9.6652

>  <Error>


$$$$

Actelion Java MolfileCreator 1.0

 29 30  0  0  0  0  0  0  0  0999 V2000
   -0.9685    0.4112   -0.0485 O   0  0  0  0  0  0  0  0  0  0  0  0
    0.0641   -0.2464   -0.0468 C   0  0  0  0  0  0  0  0  0  0  0  0
    1.0435   -0.1726    0.9326 N   0  0  0  0  0  0  0  0  0  0  0  0
    0.4230   -1.1693   -1.0175 N   0  0  0  0  0  0  0  0  0  0  0  0
    1.0756    0.7355    2.0128 C   0  0  0  0  0  0  0  0  0  0  0  0
   -0.3680   -1.5994   -2.1019 C   0  0  0  0  0  0  0  0  0  0  0  0
    1.8568    0.4330    3.1263 C   0  0  0  0  0  0  0  0  0  0  0  0
    0.4053    1.9596    2.0169 C   0  0  0  0  0  0  0  0  0  0  0  0
   -1.7599   -1.4929   -2.1254 C   0  0  0  0  0  0  0  0  0  0  0  0
    0.2864   -2.2025   -3.1832 C   0  0  0  0  0  0  0  0  0  0  0  0
    2.0024    1.2380    4.2026 N   0  0  0  0  0  0  0  0  0  0  0  0
    0.4951    2.8142    3.1183 C   0  0  0  0  0  0  0  0  0  0  0  0
   -2.4865   -1.9643   -3.2229 C   0  0  0  0  0  0  0  0  0  0  0  0
   -0.4403   -2.6735   -4.2799 C   0  0  0  0  0  0  0  0  0  0  0  0
    1.3226    2.4085    4.1640 C   0  0  0  0  0  0  0  0  0  0  0  0
   -0.1284    4.0517    3.1063 N   0  0  0  0  0  0  0  0  0  0  0  0
   -1.8275   -2.5525   -4.3000 C   0  0  0  0  0  0  0  0  0  0  0  0
    1.7126   -0.9270    0.9562 H   0  0  0  0  0  0  0  0  0  0  0  0
    1.3894   -1.4552   -1.0320 H   0  0  0  0  0  0  0  0  0  0  0  0
    2.4120   -0.4980    3.1923 H   0  0  0  0  0  0  0  0  0  0  0  0
   -0.1884    2.2673    1.1617 H   0  0  0  0  0  0  0  0  0  0  0  0
   -2.3078   -1.0530   -1.2969 H   0  0  0  0  0  0  0  0  0  0  0  0
    1.3678   -2.3063   -3.1933 H   0  0  0  0  0  0  0  0  0  0  0  0
   -3.5696   -1.8709   -3.2314 H   0  0  0  0  0  0  0  0  0  0  0  0
    0.0765   -3.1332   -5.1183 H   0  0  0  0  0  0  0  0  0  0  0  0
    1.4681    3.0422    5.0342 H   0  0  0  0  0  0  0  0  0  0  0  0
   -0.8054    4.2560    2.3814 H   0  0  0  0  0  0  0  0  0  0  0  0
   -0.1552    4.6164    3.9446 H   0  0  0  0  0  0  0  0  0  0  0  0
   -2.3955   -2.9166   -5.1521 H   0  0  0  0  0  0  0  0  0  0  0  0
  1  2  2  0  0  0  0
  2  3  1  0  0  0  0
  2  4  1  0  0  0  0
  3  5  1  0  0  0  0
  4  6  1  0  0  0  0
  5  7  2  0  0  0  0
  5  8  1  0  0  0  0
  6  9  2  0  0  0  0
  6 10  1  0  0  0  0
  7 11  1  0  0  0  0
  8 12  2  0  0  0  0
  9 13  1  0  0  0  0
 10 14  2  0  0  0  0
 11 15  2  0  0  0  0
 12 16  1  0  0  0  0
 13 17  2  0  0  0  0
 12 15  1  0  0  0  0
 14 17  1  0  0  0  0
  3 18  1  0  0  0  0
  4 19  1  0  0  0  0
  7 20  1  0  0  0  0
  8 21  1  0  0  0  0
  9 22  1  0  0  0  0
 10 23  1  0  0  0  0
 13 24  1  0  0  0  0
 14 25  1  0  0  0  0
 15 26  1  0  0  0  0
 16 27  1  0  0  0  0
 16 28  1  0  0  0  0
 17 29  1  0  0  0  0
M  END
>  <ID>
2

>  <Stereo Isomer>
1

>  <Energy>
2.2862

>  <Error>


$$$$

Actelion Java MolfileCreator 1.0

 27 28  0  0  0  0  0  0  0  0999 V2000
   -1.0550   -0.5202   -0.7253 O   0  0  0  0  0  0  0  0  0  0  0  0
   -0.0790    0.0092   -0.2109 C   0  0  0  0  0  0  0  0  0  0  0  0
    0.9450    0.6200   -0.9183 N   0  0  0  0  0  0  0  0  0  0  0  0
    0.1617    0.0857    1.1522 N   0  0  0  0  0  0  0  0  0  0  0  0
    0.9920    0.8202   -2.3136 C   0  0  0  0  0  0  0  0  0  0  0  0
   -0.5986   -0.5149    2.1762 C   0  0  0  0  0  0  0  0  0  0  0  0
   -0.1011    0.7200   -3.1705 C   0  0  0  0  0  0  0  0  0  0  0  0
    2.2162    1.1806   -2.8816 C   0  0  0  0  0  0  0  0  0  0  0  0
   -0.4462   -0.0140    3.4751 C   0  0  0  0  0  0  0  0  0  0  0  0
   -1.4517   -1.5996    1.9640 C   0  0  0  0  0  0  0  0  0  0  0  0
   -0.0413    0.9439   -4.5095 N   0  0  0  0  0  0  0  0  0  0  0  0
    2.3066    1.4102   -4.2536 C   0  0  0  0  0  0  0  0  0  0  0  0
   -1.1518   -0.5779    4.5413 C   0  0  0  0  0  0  0  0  0  0  0  0
   -2.1576   -2.1634    3.0310 C   0  0  0  0  0  0  0  0  0  0  0  0
    1.1609    1.2794   -5.0189 C   0  0  0  0  0  0  0  0  0  0  0  0
   -2.0093   -1.6522    4.3183 C   0  0  0  0  0  0  0  0  0  0  0  0
    1.7834    0.8383   -0.4035 H   0  0  0  0  0  0  0  0  0  0  0  0
    0.8685    0.7388    1.4508 H   0  0  0  0  0  0  0  0  0  0  0  0
   -1.0951    0.4654   -2.8168 H   0  0  0  0  0  0  0  0  0  0  0  0
    3.1098    1.2808   -2.2729 H   0  0  0  0  0  0  0  0  0  0  0  0
    0.2138    0.8253    3.6755 H   0  0  0  0  0  0  0  0  0  0  0  0
   -1.5818   -2.0335    0.9765 H   0  0  0  0  0  0  0  0  0  0  0  0
    3.2488    1.6844   -4.7147 H   0  0  0  0  0  0  0  0  0  0  0  0
   -1.0335   -0.1775    5.5448 H   0  0  0  0  0  0  0  0  0  0  0  0
   -2.8229   -3.0042    2.8514 H   0  0  0  0  0  0  0  0  0  0  0  0
    1.1790    1.4471   -6.0919 H   0  0  0  0  0  0  0  0  0  0  0  0
   -2.5610   -2.0921    5.1450 H   0  0  0  0  0  0  0  0  0  0  0  0
  1  2  2  0  0  0  0
  2  3  1  0  0  0  0
  2  4  1  0  0  0  0
  3  5  1  0  0  0  0
  4  6  1  0  0  0  0
  5  7  2  0  0  0  0
  5  8  1  0  0  0  0
  6  9  2  0  0  0  0
  6 10  1  0  0  0  0
  7 11  1  0  0  0  0
  8 12  2  0  0  0  0
  9 13  1  0  0  0  0
 10 14  2  0  0  0  0
 11 15  2  0  0  0  0
 13 16  2  0  0  0  0
 12 15  1  0  0  0  0
 14 16  1  0  0  0  0
  3 17  1  0  0  0  0
  4 18  1  0  0  0  0
  7 19  1  0  0  0  0
  8 20  1  0  0  0  0
  9 21  1  0  0  0  0
 10 22  1  0  0  0  0
 12 23  1  0  0  0  0
 13 24  1  0  0  0  0
 14 25  1  0  0  0  0
 15 26  1  0  0  0  0
 16 27  1  0  0  0  0
M  END
>  <ID>
1

>  <Stereo Isomer>
1

>  <Energy>
-15.881

>  <Error>


$$$$

Actelion Java MolfileCreator 1.0

 33 35  0  0  0  0  0  0  0  0999 V2000
    2.0693   -0.4775   -0.3740 O   0  0  0  0  0  0  0  0  0  0  0  0
    0.9223   -0.6248    0.0252 C   0  0  0  0  0  0  0  0  0  0  0  0
   -0.0642    0.3520   -0.0072 N   0  0  0  0  0  0  0  0  0  0  0  0
    0.4190   -1.7976    0.5723 N   0  0  0  0  0  0  0  0  0  0  0  0
    0.0503    1.6915   -0.3486 C   0  0  0  0  0  0  0  0  0  0  0  0
    1.0833   -3.0389    0.6484 C   0  0  0  0  0  0  0  0  0  0  0  0
   -1.1815    2.5129   -0.4380 C   0  0  0  0  0  0  0  0  0  0  0  0
    1.2307    2.3129   -0.5813 C   0  0  0  0  0  0  0  0  0  0  0  0
    2.1437   -3.3930   -0.1880 C   0  0  0  0  0  0  0  0  0  0  0  0
    0.6140   -3.9702    1.5831 C   0  0  0  0  0  0  0  0  0  0  0  0
   -0.9807    3.8811   -0.7482 N   0  0  0  0  0  0  0  0  0  0  0  0
   -2.4506    2.0622   -0.2597 C   0  0  0  0  0  0  0  0  0  0  0  0
    1.4051    3.6480   -0.8967 N   0  0  0  0  0  0  0  0  0  0  0  0
    2.7405   -4.6525   -0.0782 C   0  0  0  0  0  0  0  0  0  0  0  0
    1.2108   -5.2289    1.6924 C   0  0  0  0  0  0  0  0  0  0  0  0
   -2.0703    4.7285   -0.8509 N   0  0  0  0  0  0  0  0  0  0  0  0
    0.3078    4.3347   -0.9575 C   0  0  0  0  0  0  0  0  0  0  0  0
   -3.5839    2.9776   -0.3784 C   0  0  0  0  0  0  0  0  0  0  0  0
    2.2758   -5.5692    0.8622 C   0  0  0  0  0  0  0  0  0  0  0  0
   -3.3516    4.2684   -0.6675 C   0  0  0  0  0  0  0  0  0  0  0  0
   -0.9910    0.0122    0.1775 H   0  0  0  0  0  0  0  0  0  0  0  0
   -0.4382   -1.7234    1.0964 H   0  0  0  0  0  0  0  0  0  0  0  0
    2.1711    1.7748   -0.5166 H   0  0  0  0  0  0  0  0  0  0  0  0
    2.5229   -2.7083   -0.9416 H   0  0  0  0  0  0  0  0  0  0  0  0
   -0.2128   -3.7282    2.2449 H   0  0  0  0  0  0  0  0  0  0  0  0
   -2.7030    1.0359   -0.0344 H   0  0  0  0  0  0  0  0  0  0  0  0
    3.5696   -4.9135   -0.7312 H   0  0  0  0  0  0  0  0  0  0  0  0
    0.8459   -5.9425    2.4265 H   0  0  0  0  0  0  0  0  0  0  0  0
   -1.9293    5.7103   -1.0699 H   0  0  0  0  0  0  0  0  0  0  0  0
    0.3584    5.4085   -1.2020 H   0  0  0  0  0  0  0  0  0  0  0  0
   -4.5880    2.5970   -0.2326 H   0  0  0  0  0  0  0  0  0  0  0  0
    2.7437   -6.5466    0.9459 H   0  0  0  0  0  0  0  0  0  0  0  0
   -4.1390    5.0066   -0.7724 H   0  0  0  0  0  0  0  0  0  0  0  0
  1  2  2  0  0  0  0
  2  3  1  0  0  0  0
  2  4  1  0  0  0  0
  3  5  1  0  0  0  0
  4  6  1  0  0  0  0
  5  7  1  0  0  0  0
  5  8  2  0  0  0  0
  6  9  2  0  0  0  0
  6 10  1  0  0  0  0
  7 11  1  0  0  0  0
  7 12  2  0  0  0  0
  8 13  1  0  0  0  0
  9 14  1  0  0  0  0
 10 15  2  0  0  0  0
 11 16  1  0  0  0  0
 11 17  1  0  0  0  0
 12 18  1  0  0  0  0
 14 19  2  0  0  0  0
 16 20  1  0  0  0  0
 13 17  2  0  0  0  0
 15 19  1  0  0  0  0
 18 20  2  0  0  0  0
  3 21  1  0  0  0  0
  4 22  1  0  0  0  0
  8 23  1  0  0  0  0
  9 24  1  0  0  0  0
 10 25  1  0  0  0  0
 12 26  1  0  0  0  0
 14 27  1  0  0  0  0
 15 28  1  0  0  0  0
 16 29  1  0  0  0  0
 17 30  1  0  0  0  0
 18 31  1  0  0  0  0
 19 32  1  0  0  0  0
 20 33  1  0  0  0  0
M  END
>  <ID>
5

>  <Stereo Isomer>
1

>  <Energy>
27.002

>  <Error>


$$$$
