
 OpenBabel04122007303D

 29 30  0  0  0  0  0  0  0  0999 V2000
   -0.9685    0.4112   -0.0485 O   0  0  0  0  0  0  0  0  0  0  0  0
    0.0641   -0.2464   -0.0468 C   0  0  0  0  0  0  0  0  0  0  0  0
    1.0435   -0.1726    0.9326 N   0  0  0  0  0  0  0  0  0  0  0  0
    0.4230   -1.1693   -1.0175 N   0  0  0  0  0  0  0  0  0  0  0  0
    1.0756    0.7355    2.0128 C   0  0  0  0  0  0  0  0  0  0  0  0
   -0.3680   -1.5994   -2.1019 C   0  0  0  0  0  0  0  0  0  0  0  0
    1.8568    0.4330    3.1263 C   0  0  0  0  0  0  0  0  0  0  0  0
    0.4053    1.9596    2.0169 C   0  0  0  0  0  0  0  0  0  0  0  0
   -1.7599   -1.4929   -2.1254 C   0  0  0  0  0  0  0  0  0  0  0  0
    0.2864   -2.2025   -3.1832 C   0  0  0  0  0  0  0  0  0  0  0  0
    2.0024    1.2380    4.2026 N   0  0  0  0  0  0  0  0  0  0  0  0
    0.4951    2.8142    3.1183 C   0  0  0  0  0  0  0  0  0  0  0  0
   -2.4865   -1.9643   -3.2229 C   0  0  0  0  0  0  0  0  0  0  0  0
   -0.4403   -2.6735   -4.2799 C   0  0  0  0  0  0  0  0  0  0  0  0
    1.3226    2.4085    4.1640 C   0  0  0  0  0  0  0  0  0  0  0  0
   -0.1284    4.0517    3.1063 N   0  0  0  0  0  0  0  0  0  0  0  0
   -1.8275   -2.5525   -4.3000 C   0  0  0  0  0  0  0  0  0  0  0  0
    1.7126   -0.9270    0.9562 H   0  0  0  0  0  0  0  0  0  0  0  0
    1.3894   -1.4552   -1.0320 H   0  0  0  0  0  0  0  0  0  0  0  0
    2.4120   -0.4980    3.1923 H   0  0  0  0  0  0  0  0  0  0  0  0
   -0.1884    2.2673    1.1617 H   0  0  0  0  0  0  0  0  0  0  0  0
   -2.3078   -1.0530   -1.2969 H   0  0  0  0  0  0  0  0  0  0  0  0
    1.3678   -2.3063   -3.1933 H   0  0  0  0  0  0  0  0  0  0  0  0
   -3.5696   -1.8709   -3.2314 H   0  0  0  0  0  0  0  0  0  0  0  0
    0.0765   -3.1332   -5.1183 H   0  0  0  0  0  0  0  0  0  0  0  0
    1.4681    3.0422    5.0342 H   0  0  0  0  0  0  0  0  0  0  0  0
   -0.8054    4.2560    2.3814 H   0  0  0  0  0  0  0  0  0  0  0  0
   -0.1552    4.6164    3.9446 H   0  0  0  0  0  0  0  0  0  0  0  0
   -2.3955   -2.9166   -5.1521 H   0  0  0  0  0  0  0  0  0  0  0  0
  1  2  2  0  0  0  0
  2  3  1  0  0  0  0
  2  4  1  0  0  0  0
  3  5  1  0  0  0  0
  3 18  1  0  0  0  0
  4  6  1  0  0  0  0
  4 19  1  0  0  0  0
  5  7  2  0  0  0  0
  5  8  1  0  0  0  0
  6  9  2  0  0  0  0
  6 10  1  0  0  0  0
  7 11  1  0  0  0  0
  7 20  1  0  0  0  0
  8 12  2  0  0  0  0
  8 21  1  0  0  0  0
  9 13  1  0  0  0  0
  9 22  1  0  0  0  0
 10 14  2  0  0  0  0
 10 23  1  0  0  0  0
 11 15  2  0  0  0  0
 12 16  1  0  0  0  0
 12 15  1  0  0  0  0
 13 17  2  0  0  0  0
 13 24  1  0  0  0  0
 14 17  1  0  0  0  0
 14 25  1  0  0  0  0
 15 26  1  0  0  0  0
 16 27  1  0  0  0  0
 16 28  1  0  0  0  0
 17 29  1  0  0  0  0
M  END
>  <ID>
2

>  <Stereo Isomer>
1

>  <Energy>
2.2862

>  <Error>


$$$$
