
 OpenBabel04122007303D

 32 33  0  0  0  0  0  0  0  0999 V2000
    0.0161    1.0427   -0.2207 O   0  0  0  0  0  0  0  0  0  0  0  0
    0.8404    0.2239    0.1649 C   0  0  0  0  0  0  0  0  0  0  0  0
    0.5289   -0.9910    0.7573 N   0  0  0  0  0  0  0  0  0  0  0  0
    2.2160    0.3756    0.0738 N   0  0  0  0  0  0  0  0  0  0  0  0
   -0.7627   -1.5389    0.9146 C   0  0  0  0  0  0  0  0  0  0  0  0
    2.9081    1.5236   -0.3618 C   0  0  0  0  0  0  0  0  0  0  0  0
   -0.9592   -2.5386    1.8627 C   0  0  0  0  0  0  0  0  0  0  0  0
   -1.8635   -1.1725    0.1379 C   0  0  0  0  0  0  0  0  0  0  0  0
    2.3492    2.8031   -0.3585 C   0  0  0  0  0  0  0  0  0  0  0  0
    4.2370    1.3629   -0.7731 C   0  0  0  0  0  0  0  0  0  0  0  0
   -2.1366   -3.1621    2.0833 N   0  0  0  0  0  0  0  0  0  0  0  0
   -3.1157   -1.7732    0.3263 C   0  0  0  0  0  0  0  0  0  0  0  0
    3.1012    3.9040   -0.7794 C   0  0  0  0  0  0  0  0  0  0  0  0
    4.9882    2.4635   -1.1937 C   0  0  0  0  0  0  0  0  0  0  0  0
   -3.1769   -2.7602    1.3114 C   0  0  0  0  0  0  0  0  0  0  0  0
   -4.1794   -1.3848   -0.4658 N   0  0  0  0  0  0  0  0  0  0  0  0
    4.4189    3.7344   -1.1983 C   0  0  0  0  0  0  0  0  0  0  0  0
   -5.5080   -1.9373   -0.3557 C   0  0  0  0  0  0  0  0  0  0  0  0
    1.2788   -1.4571    1.2445 H   0  0  0  0  0  0  0  0  0  0  0  0
    2.7703   -0.4572    0.1960 H   0  0  0  0  0  0  0  0  0  0  0  0
   -0.1502   -2.8824    2.5002 H   0  0  0  0  0  0  0  0  0  0  0  0
   -1.7606   -0.4172   -0.6354 H   0  0  0  0  0  0  0  0  0  0  0  0
    1.3297    2.9743   -0.0247 H   0  0  0  0  0  0  0  0  0  0  0  0
    4.7034    0.3817   -0.7816 H   0  0  0  0  0  0  0  0  0  0  0  0
    2.6529    4.8944   -0.7769 H   0  0  0  0  0  0  0  0  0  0  0  0
    6.0165    2.3284   -1.5187 H   0  0  0  0  0  0  0  0  0  0  0  0
   -4.1034   -3.2854    1.5220 H   0  0  0  0  0  0  0  0  0  0  0  0
   -4.0374   -0.6173   -1.1136 H   0  0  0  0  0  0  0  0  0  0  0  0
    5.0001    4.5924   -1.5260 H   0  0  0  0  0  0  0  0  0  0  0  0
   -5.5065   -3.0129   -0.5593 H   0  0  0  0  0  0  0  0  0  0  0  0
   -5.9301   -1.7560    0.6380 H   0  0  0  0  0  0  0  0  0  0  0  0
   -6.1654   -1.4606   -1.0895 H   0  0  0  0  0  0  0  0  0  0  0  0
  1  2  2  0  0  0  0
  2  3  1  0  0  0  0
  2  4  1  0  0  0  0
  3  5  1  0  0  0  0
  3 19  1  0  0  0  0
  4  6  1  0  0  0  0
  4 20  1  0  0  0  0
  5  7  2  0  0  0  0
  5  8  1  0  0  0  0
  6  9  2  0  0  0  0
  6 10  1  0  0  0  0
  7 11  1  0  0  0  0
  7 21  1  0  0  0  0
  8 12  2  0  0  0  0
  8 22  1  0  0  0  0
  9 13  1  0  0  0  0
  9 23  1  0  0  0  0
 10 14  2  0  0  0  0
 10 24  1  0  0  0  0
 11 15  2  0  0  0  0
 12 16  1  0  0  0  0
 12 15  1  0  0  0  0
 13 17  2  0  0  0  0
 13 25  1  0  0  0  0
 14 17  1  0  0  0  0
 14 26  1  0  0  0  0
 15 27  1  0  0  0  0
 16 18  1  0  0  0  0
 16 28  1  0  0  0  0
 17 29  1  0  0  0  0
 18 30  1  0  0  0  0
 18 31  1  0  0  0  0
 18 32  1  0  0  0  0
M  END
>  <ID>
3

>  <Stereo Isomer>
1

>  <Energy>
3.5149

>  <Error>


$$$$
