
 OpenBabel04122007303D

 27 28  0  0  0  0  0  0  0  0999 V2000
   -1.0550   -0.5202   -0.7253 O   0  0  0  0  0  0  0  0  0  0  0  0
   -0.0790    0.0092   -0.2109 C   0  0  0  0  0  0  0  0  0  0  0  0
    0.9450    0.6200   -0.9183 N   0  0  0  0  0  0  0  0  0  0  0  0
    0.1617    0.0857    1.1522 N   0  0  0  0  0  0  0  0  0  0  0  0
    0.9920    0.8202   -2.3136 C   0  0  0  0  0  0  0  0  0  0  0  0
   -0.5986   -0.5149    2.1762 C   0  0  0  0  0  0  0  0  0  0  0  0
   -0.1011    0.7200   -3.1705 C   0  0  0  0  0  0  0  0  0  0  0  0
    2.2162    1.1806   -2.8816 C   0  0  0  0  0  0  0  0  0  0  0  0
   -0.4462   -0.0140    3.4751 C   0  0  0  0  0  0  0  0  0  0  0  0
   -1.4517   -1.5996    1.9640 C   0  0  0  0  0  0  0  0  0  0  0  0
   -0.0413    0.9439   -4.5095 N   0  0  0  0  0  0  0  0  0  0  0  0
    2.3066    1.4102   -4.2536 C   0  0  0  0  0  0  0  0  0  0  0  0
   -1.1518   -0.5779    4.5413 C   0  0  0  0  0  0  0  0  0  0  0  0
   -2.1576   -2.1634    3.0310 C   0  0  0  0  0  0  0  0  0  0  0  0
    1.1609    1.2794   -5.0189 C   0  0  0  0  0  0  0  0  0  0  0  0
   -2.0093   -1.6522    4.3183 C   0  0  0  0  0  0  0  0  0  0  0  0
    1.7834    0.8383   -0.4035 H   0  0  0  0  0  0  0  0  0  0  0  0
    0.8685    0.7388    1.4508 H   0  0  0  0  0  0  0  0  0  0  0  0
   -1.0951    0.4654   -2.8168 H   0  0  0  0  0  0  0  0  0  0  0  0
    3.1098    1.2808   -2.2729 H   0  0  0  0  0  0  0  0  0  0  0  0
    0.2138    0.8253    3.6755 H   0  0  0  0  0  0  0  0  0  0  0  0
   -1.5818   -2.0335    0.9765 H   0  0  0  0  0  0  0  0  0  0  0  0
    3.2488    1.6844   -4.7147 H   0  0  0  0  0  0  0  0  0  0  0  0
   -1.0335   -0.1775    5.5448 H   0  0  0  0  0  0  0  0  0  0  0  0
   -2.8229   -3.0042    2.8514 H   0  0  0  0  0  0  0  0  0  0  0  0
    1.1790    1.4471   -6.0919 H   0  0  0  0  0  0  0  0  0  0  0  0
   -2.5610   -2.0921    5.1450 H   0  0  0  0  0  0  0  0  0  0  0  0
  1  2  2  0  0  0  0
  2  3  1  0  0  0  0
  2  4  1  0  0  0  0
  3  5  1  0  0  0  0
  3 17  1  0  0  0  0
  4  6  1  0  0  0  0
  4 18  1  0  0  0  0
  5  7  2  0  0  0  0
  5  8  1  0  0  0  0
  6  9  2  0  0  0  0
  6 10  1  0  0  0  0
  7 11  1  0  0  0  0
  7 19  1  0  0  0  0
  8 12  2  0  0  0  0
  8 20  1  0  0  0  0
  9 13  1  0  0  0  0
  9 21  1  0  0  0  0
 10 14  2  0  0  0  0
 10 22  1  0  0  0  0
 11 15  2  0  0  0  0
 12 15  1  0  0  0  0
 12 23  1  0  0  0  0
 13 16  2  0  0  0  0
 13 24  1  0  0  0  0
 14 16  1  0  0  0  0
 14 25  1  0  0  0  0
 15 26  1  0  0  0  0
 16 27  1  0  0  0  0
M  END
>  <ID>
1

>  <Stereo Isomer>
1

>  <Energy>
-15.881

>  <Error>


$$$$
