
 OpenBabel04122007303D

 30 32  0  0  0  0  0  0  0  0999 V2000
   -0.8179    0.0089   -0.7471 O   0  0  0  0  0  0  0  0  0  0  0  0
   -0.2304   -0.0380    0.3242 C   0  0  0  0  0  0  0  0  0  0  0  0
    0.2104    1.0781    1.0148 N   0  0  0  0  0  0  0  0  0  0  0  0
    0.0603   -1.1893    1.0353 N   0  0  0  0  0  0  0  0  0  0  0  0
    0.3282    2.3768    0.5485 C   0  0  0  0  0  0  0  0  0  0  0  0
   -0.3433   -2.5009    0.7144 C   0  0  0  0  0  0  0  0  0  0  0  0
    0.5741    2.7384   -0.7894 N   0  0  0  0  0  0  0  0  0  0  0  0
    0.2458    3.3954    1.4402 C   0  0  0  0  0  0  0  0  0  0  0  0
   -1.4262   -2.7881   -0.1189 C   0  0  0  0  0  0  0  0  0  0  0  0
    0.3614   -3.5583    1.3029 C   0  0  0  0  0  0  0  0  0  0  0  0
    0.6626    4.0713   -1.1322 C   0  0  0  0  0  0  0  0  0  0  0  0
    0.8656    2.0522   -1.9434 C   0  0  0  0  0  0  0  0  0  0  0  0
    0.3313    4.7450    1.1392 N   0  0  0  0  0  0  0  0  0  0  0  0
   -1.7877   -4.1138   -0.3763 C   0  0  0  0  0  0  0  0  0  0  0  0
   -0.0005   -4.8831    1.0453 C   0  0  0  0  0  0  0  0  0  0  0  0
    0.9134    4.2705   -2.4065 N   0  0  0  0  0  0  0  0  0  0  0  0
    0.5201    5.0671   -0.1112 C   0  0  0  0  0  0  0  0  0  0  0  0
    1.0334    3.0074   -2.9222 C   0  0  0  0  0  0  0  0  0  0  0  0
   -1.0747   -5.1606    0.2038 C   0  0  0  0  0  0  0  0  0  0  0  0
    0.2267    0.9568    2.0183 H   0  0  0  0  0  0  0  0  0  0  0  0
    0.7503   -1.1013    1.7659 H   0  0  0  0  0  0  0  0  0  0  0  0
    0.0708    3.1955    2.4948 H   0  0  0  0  0  0  0  0  0  0  0  0
   -2.0140   -1.9980   -0.5777 H   0  0  0  0  0  0  0  0  0  0  0  0
    1.2049   -3.3694    1.9610 H   0  0  0  0  0  0  0  0  0  0  0  0
    0.9264    0.9761   -1.9883 H   0  0  0  0  0  0  0  0  0  0  0  0
   -2.6297   -4.3248   -1.0310 H   0  0  0  0  0  0  0  0  0  0  0  0
    0.5566   -5.6980    1.5003 H   0  0  0  0  0  0  0  0  0  0  0  0
    0.5878    6.1294   -0.3951 H   0  0  0  0  0  0  0  0  0  0  0  0
    1.2522    2.8446   -3.9701 H   0  0  0  0  0  0  0  0  0  0  0  0
   -1.3580   -6.1900    0.0003 H   0  0  0  0  0  0  0  0  0  0  0  0
  1  2  2  0  0  0  0
  2  3  1  0  0  0  0
  2  4  1  0  0  0  0
  3  5  1  0  0  0  0
  3 20  1  0  0  0  0
  4  6  1  0  0  0  0
  4 21  1  0  0  0  0
  5  7  1  0  0  0  0
  5  8  2  0  0  0  0
  6  9  2  0  0  0  0
  6 10  1  0  0  0  0
  7 11  1  0  0  0  0
  7 12  1  0  0  0  0
  8 13  1  0  0  0  0
  8 22  1  0  0  0  0
  9 14  1  0  0  0  0
  9 23  1  0  0  0  0
 10 15  2  0  0  0  0
 10 24  1  0  0  0  0
 11 16  2  0  0  0  0
 11 17  1  0  0  0  0
 12 18  2  0  0  0  0
 12 25  1  0  0  0  0
 13 17  2  0  0  0  0
 14 19  2  0  0  0  0
 14 26  1  0  0  0  0
 15 19  1  0  0  0  0
 15 27  1  0  0  0  0
 16 18  1  0  0  0  0
 17 28  1  0  0  0  0
 18 29  1  0  0  0  0
 19 30  1  0  0  0  0
M  END
>  <ID>
9

>  <Stereo Isomer>
1

>  <Energy>
10.784

>  <Error>


$$$$
