
 OpenBabel04122007303D

 33 35  0  0  0  0  0  0  0  0999 V2000
    2.0693   -0.4775   -0.3740 O   0  0  0  0  0  0  0  0  0  0  0  0
    0.9223   -0.6248    0.0252 C   0  0  0  0  0  0  0  0  0  0  0  0
   -0.0642    0.3520   -0.0072 N   0  0  0  0  0  0  0  0  0  0  0  0
    0.4190   -1.7976    0.5723 N   0  0  0  0  0  0  0  0  0  0  0  0
    0.0503    1.6915   -0.3486 C   0  0  0  0  0  0  0  0  0  0  0  0
    1.0833   -3.0389    0.6484 C   0  0  0  0  0  0  0  0  0  0  0  0
   -1.1815    2.5129   -0.4380 C   0  0  0  0  0  0  0  0  0  0  0  0
    1.2307    2.3129   -0.5813 C   0  0  0  0  0  0  0  0  0  0  0  0
    2.1437   -3.3930   -0.1880 C   0  0  0  0  0  0  0  0  0  0  0  0
    0.6140   -3.9702    1.5831 C   0  0  0  0  0  0  0  0  0  0  0  0
   -0.9807    3.8811   -0.7482 N   0  0  0  0  0  0  0  0  0  0  0  0
   -2.4506    2.0622   -0.2597 C   0  0  0  0  0  0  0  0  0  0  0  0
    1.4051    3.6480   -0.8967 N   0  0  0  0  0  0  0  0  0  0  0  0
    2.7405   -4.6525   -0.0782 C   0  0  0  0  0  0  0  0  0  0  0  0
    1.2108   -5.2289    1.6924 C   0  0  0  0  0  0  0  0  0  0  0  0
   -2.0703    4.7285   -0.8509 N   0  0  0  0  0  0  0  0  0  0  0  0
    0.3078    4.3347   -0.9575 C   0  0  0  0  0  0  0  0  0  0  0  0
   -3.5839    2.9776   -0.3784 C   0  0  0  0  0  0  0  0  0  0  0  0
    2.2758   -5.5692    0.8622 C   0  0  0  0  0  0  0  0  0  0  0  0
   -3.3516    4.2684   -0.6675 C   0  0  0  0  0  0  0  0  0  0  0  0
   -0.9910    0.0122    0.1775 H   0  0  0  0  0  0  0  0  0  0  0  0
   -0.4382   -1.7234    1.0964 H   0  0  0  0  0  0  0  0  0  0  0  0
    2.1711    1.7748   -0.5166 H   0  0  0  0  0  0  0  0  0  0  0  0
    2.5229   -2.7083   -0.9416 H   0  0  0  0  0  0  0  0  0  0  0  0
   -0.2128   -3.7282    2.2449 H   0  0  0  0  0  0  0  0  0  0  0  0
   -2.7030    1.0359   -0.0344 H   0  0  0  0  0  0  0  0  0  0  0  0
    3.5696   -4.9135   -0.7312 H   0  0  0  0  0  0  0  0  0  0  0  0
    0.8459   -5.9425    2.4265 H   0  0  0  0  0  0  0  0  0  0  0  0
   -1.9293    5.7103   -1.0699 H   0  0  0  0  0  0  0  0  0  0  0  0
    0.3584    5.4085   -1.2020 H   0  0  0  0  0  0  0  0  0  0  0  0
   -4.5880    2.5970   -0.2326 H   0  0  0  0  0  0  0  0  0  0  0  0
    2.7437   -6.5466    0.9459 H   0  0  0  0  0  0  0  0  0  0  0  0
   -4.1390    5.0066   -0.7724 H   0  0  0  0  0  0  0  0  0  0  0  0
  1  2  2  0  0  0  0
  2  3  1  0  0  0  0
  2  4  1  0  0  0  0
  3  5  1  0  0  0  0
  3 21  1  0  0  0  0
  4  6  1  0  0  0  0
  4 22  1  0  0  0  0
  5  7  1  0  0  0  0
  5  8  2  0  0  0  0
  6  9  2  0  0  0  0
  6 10  1  0  0  0  0
  7 11  1  0  0  0  0
  7 12  2  0  0  0  0
  8 13  1  0  0  0  0
  8 23  1  0  0  0  0
  9 14  1  0  0  0  0
  9 24  1  0  0  0  0
 10 15  2  0  0  0  0
 10 25  1  0  0  0  0
 11 16  1  0  0  0  0
 11 17  1  0  0  0  0
 12 18  1  0  0  0  0
 12 26  1  0  0  0  0
 13 17  2  0  0  0  0
 14 19  2  0  0  0  0
 14 27  1  0  0  0  0
 15 19  1  0  0  0  0
 15 28  1  0  0  0  0
 16 20  1  0  0  0  0
 16 29  1  0  0  0  0
 17 30  1  0  0  0  0
 18 20  2  0  0  0  0
 18 31  1  0  0  0  0
 19 32  1  0  0  0  0
 20 33  1  0  0  0  0
M  END
>  <ID>
5

>  <Stereo Isomer>
1

>  <Energy>
27.002

>  <Error>


$$$$
