
 OpenBabel04122007303D

 32 34  0  0  0  0  0  0  0  0999 V2000
   -0.5596   -0.8557   -0.3986 O   0  0  0  0  0  0  0  0  0  0  0  0
    0.5078   -0.4389    0.0314 C   0  0  0  0  0  0  0  0  0  0  0  0
    0.6816    0.0426    1.3203 N   0  0  0  0  0  0  0  0  0  0  0  0
    1.6937   -0.3641   -0.6776 N   0  0  0  0  0  0  0  0  0  0  0  0
   -0.3737    0.1366    2.2565 C   0  0  0  0  0  0  0  0  0  0  0  0
    1.9284   -0.8444   -1.9815 C   0  0  0  0  0  0  0  0  0  0  0  0
   -1.5282    0.9400    2.0600 C   0  0  0  0  0  0  0  0  0  0  0  0
   -0.2393   -0.5513    3.4597 C   0  0  0  0  0  0  0  0  0  0  0  0
    3.0550   -0.3589   -2.6572 C   0  0  0  0  0  0  0  0  0  0  0  0
    1.1226   -1.7983   -2.6061 C   0  0  0  0  0  0  0  0  0  0  0  0
   -2.5064    0.9844    3.0751 C   0  0  0  0  0  0  0  0  0  0  0  0
   -1.7771    1.7367    0.9199 C   0  0  0  0  0  0  0  0  0  0  0  0
   -1.1487   -0.5203    4.4516 N   0  0  0  0  0  0  0  0  0  0  0  0
    3.3595   -0.8078   -3.9449 C   0  0  0  0  0  0  0  0  0  0  0  0
    1.4276   -2.2471   -3.8947 C   0  0  0  0  0  0  0  0  0  0  0  0
   -3.6365    1.7197    2.9854 N   0  0  0  0  0  0  0  0  0  0  0  0
   -2.2510    0.2381    4.2163 C   0  0  0  0  0  0  0  0  0  0  0  0
   -2.9406    2.4916    0.8173 C   0  0  0  0  0  0  0  0  0  0  0  0
    2.5440   -1.7514   -4.5643 C   0  0  0  0  0  0  0  0  0  0  0  0
   -3.8339    2.4466    1.8663 C   0  0  0  0  0  0  0  0  0  0  0  0
    1.6205    0.0144    1.6906 H   0  0  0  0  0  0  0  0  0  0  0  0
    2.4229    0.2030   -0.2734 H   0  0  0  0  0  0  0  0  0  0  0  0
    0.6261   -1.1758    3.6622 H   0  0  0  0  0  0  0  0  0  0  0  0
    3.7065    0.3792   -2.1976 H   0  0  0  0  0  0  0  0  0  0  0  0
    0.2517   -2.2179   -2.1105 H   0  0  0  0  0  0  0  0  0  0  0  0
   -1.0709    1.7637    0.0947 H   0  0  0  0  0  0  0  0  0  0  0  0
    4.2321   -0.4206   -4.4644 H   0  0  0  0  0  0  0  0  0  0  0  0
    0.7896   -2.9869   -4.3718 H   0  0  0  0  0  0  0  0  0  0  0  0
   -2.9766    0.2424    5.0265 H   0  0  0  0  0  0  0  0  0  0  0  0
   -3.1431    3.0909   -0.0629 H   0  0  0  0  0  0  0  0  0  0  0  0
    2.7773   -2.1021   -5.5662 H   0  0  0  0  0  0  0  0  0  0  0  0
   -4.7612    3.0117    1.8379 H   0  0  0  0  0  0  0  0  0  0  0  0
  1  2  2  0  0  0  0
  2  3  1  0  0  0  0
  2  4  1  0  0  0  0
  3  5  1  0  0  0  0
  3 21  1  0  0  0  0
  4  6  1  0  0  0  0
  4 22  1  0  0  0  0
  5  7  1  0  0  0  0
  5  8  2  0  0  0  0
  6  9  2  0  0  0  0
  6 10  1  0  0  0  0
  7 11  1  0  0  0  0
  7 12  2  0  0  0  0
  8 13  1  0  0  0  0
  8 23  1  0  0  0  0
  9 14  1  0  0  0  0
  9 24  1  0  0  0  0
 10 15  2  0  0  0  0
 10 25  1  0  0  0  0
 11 16  2  0  0  0  0
 11 17  1  0  0  0  0
 12 18  1  0  0  0  0
 12 26  1  0  0  0  0
 13 17  2  0  0  0  0
 14 19  2  0  0  0  0
 14 27  1  0  0  0  0
 15 19  1  0  0  0  0
 15 28  1  0  0  0  0
 16 20  1  0  0  0  0
 17 29  1  0  0  0  0
 18 20  2  0  0  0  0
 18 30  1  0  0  0  0
 19 31  1  0  0  0  0
 20 32  1  0  0  0  0
M  END
>  <ID>
6

>  <Stereo Isomer>
1

>  <Energy>
28.129

>  <Error>


$$$$
