
 OpenBabel04122007303D

 30 32  0  0  0  0  0  0  0  0999 V2000
   -1.0644   -0.4446    1.1948 O   0  0  0  0  0  0  0  0  0  0  0  0
   -0.3014    0.1342    0.4330 C   0  0  0  0  0  0  0  0  0  0  0  0
    0.6185   -0.5041   -0.3832 N   0  0  0  0  0  0  0  0  0  0  0  0
   -0.2308    1.5075    0.2629 N   0  0  0  0  0  0  0  0  0  0  0  0
    0.8934   -1.8880   -0.4028 C   0  0  0  0  0  0  0  0  0  0  0  0
   -1.0817    2.4718    0.8405 C   0  0  0  0  0  0  0  0  0  0  0  0
    1.6044   -2.4507   -1.4789 C   0  0  0  0  0  0  0  0  0  0  0  0
    0.5471   -2.7891    0.6064 C   0  0  0  0  0  0  0  0  0  0  0  0
   -0.6291    3.7967    0.8767 C   0  0  0  0  0  0  0  0  0  0  0  0
   -2.3550    2.1771    1.3318 C   0  0  0  0  0  0  0  0  0  0  0  0
    1.8927   -3.8122   -1.4705 C   0  0  0  0  0  0  0  0  0  0  0  0
    2.1664   -1.9952   -2.6954 C   0  0  0  0  0  0  0  0  0  0  0  0
    0.8370   -4.1188    0.6071 N   0  0  0  0  0  0  0  0  0  0  0  0
   -1.4310    4.8070    1.4142 C   0  0  0  0  0  0  0  0  0  0  0  0
   -3.1569    3.1883    1.8696 C   0  0  0  0  0  0  0  0  0  0  0  0
    2.5755   -4.0564   -2.6302 N   0  0  0  0  0  0  0  0  0  0  0  0
    1.5106   -4.6489   -0.4359 C   0  0  0  0  0  0  0  0  0  0  0  0
    2.7622   -2.9652   -3.3932 N   0  0  0  0  0  0  0  0  0  0  0  0
   -2.6950    4.5018    1.9124 C   0  0  0  0  0  0  0  0  0  0  0  0
    1.0438    0.0508   -1.1089 H   0  0  0  0  0  0  0  0  0  0  0  0
    0.5828    1.8645   -0.2128 H   0  0  0  0  0  0  0  0  0  0  0  0
    0.0155   -2.4689    1.4984 H   0  0  0  0  0  0  0  0  0  0  0  0
    0.3541    4.0611    0.4975 H   0  0  0  0  0  0  0  0  0  0  0  0
   -2.7542    1.1672    1.3022 H   0  0  0  0  0  0  0  0  0  0  0  0
    2.1656   -0.9935   -3.1040 H   0  0  0  0  0  0  0  0  0  0  0  0
   -1.0684    5.8311    1.4452 H   0  0  0  0  0  0  0  0  0  0  0  0
   -4.1444    2.9448    2.2537 H   0  0  0  0  0  0  0  0  0  0  0  0
    2.9433   -4.9421   -2.9603 H   0  0  0  0  0  0  0  0  0  0  0  0
    1.7199   -5.7109   -0.4027 H   0  0  0  0  0  0  0  0  0  0  0  0
   -3.3207    5.2848    2.3325 H   0  0  0  0  0  0  0  0  0  0  0  0
  1  2  2  0  0  0  0
  2  3  1  0  0  0  0
  2  4  1  0  0  0  0
  3  5  1  0  0  0  0
  3 20  1  0  0  0  0
  4  6  1  0  0  0  0
  4 21  1  0  0  0  0
  5  7  2  0  0  0  0
  5  8  1  0  0  0  0
  6  9  2  0  0  0  0
  6 10  1  0  0  0  0
  7 11  1  0  0  0  0
  7 12  1  0  0  0  0
  8 13  2  0  0  0  0
  8 22  1  0  0  0  0
  9 14  1  0  0  0  0
  9 23  1  0  0  0  0
 10 15  2  0  0  0  0
 10 24  1  0  0  0  0
 11 16  1  0  0  0  0
 11 17  2  0  0  0  0
 12 18  2  0  0  0  0
 12 25  1  0  0  0  0
 13 17  1  0  0  0  0
 14 19  2  0  0  0  0
 14 26  1  0  0  0  0
 15 19  1  0  0  0  0
 15 27  1  0  0  0  0
 16 18  1  0  0  0  0
 16 28  1  0  0  0  0
 17 29  1  0  0  0  0
 19 30  1  0  0  0  0
M  END
>  <ID>
11

>  <Stereo Isomer>
1

>  <Energy>
-8.5763

>  <Error>


$$$$
