
 OpenBabel04122007303D

 34 35  0  0  0  0  0  0  0  0999 V2000
   -0.3484    0.4861   -1.4782 O   0  0  0  0  0  0  0  0  0  0  0  0
   -0.5087   -0.4844   -0.7482 C   0  0  0  0  0  0  0  0  0  0  0  0
   -1.5657   -1.3797   -0.7980 N   0  0  0  0  0  0  0  0  0  0  0  0
    0.4975   -0.8707    0.3301 C   0  0  0  0  0  0  0  0  0  0  0  0
   -2.6792   -1.3366   -1.6646 C   0  0  0  0  0  0  0  0  0  0  0  0
    1.5450    0.2160    0.6210 C   0  0  0  0  0  0  0  0  0  0  0  0
   -3.5826   -2.4003   -1.6468 C   0  0  0  0  0  0  0  0  0  0  0  0
   -2.9586   -0.2911   -2.5403 C   0  0  0  0  0  0  0  0  0  0  0  0
    2.7058   -0.3765    1.4376 C   0  0  0  0  0  0  0  0  0  0  0  0
    0.9226    1.4075    1.3701 C   0  0  0  0  0  0  0  0  0  0  0  0
   -4.6946   -2.4857   -2.4162 N   0  0  0  0  0  0  0  0  0  0  0  0
   -4.0950   -0.3477   -3.3488 C   0  0  0  0  0  0  0  0  0  0  0  0
    3.7495    0.6804    1.7910 C   0  0  0  0  0  0  0  0  0  0  0  0
    1.9685    2.4633    1.7220 C   0  0  0  0  0  0  0  0  0  0  0  0
   -4.9234   -1.4530   -3.2530 C   0  0  0  0  0  0  0  0  0  0  0  0
    3.1251    1.8671    2.5170 C   0  0  0  0  0  0  0  0  0  0  0  0
   -1.5296   -2.1635   -0.1577 H   0  0  0  0  0  0  0  0  0  0  0  0
   -0.0423   -1.1306    1.2491 H   0  0  0  0  0  0  0  0  0  0  0  0
    0.9977   -1.7811   -0.0245 H   0  0  0  0  0  0  0  0  0  0  0  0
    1.9548    0.5823   -0.3301 H   0  0  0  0  0  0  0  0  0  0  0  0
   -3.4377   -3.2534   -0.9902 H   0  0  0  0  0  0  0  0  0  0  0  0
   -2.3187    0.5818   -2.6167 H   0  0  0  0  0  0  0  0  0  0  0  0
    3.1890   -1.1810    0.8704 H   0  0  0  0  0  0  0  0  0  0  0  0
    2.3198   -0.8264    2.3614 H   0  0  0  0  0  0  0  0  0  0  0  0
    0.1384    1.8744    0.7640 H   0  0  0  0  0  0  0  0  0  0  0  0
    0.4419    1.0569    2.2926 H   0  0  0  0  0  0  0  0  0  0  0  0
   -4.3249    0.4583   -4.0371 H   0  0  0  0  0  0  0  0  0  0  0  0
    4.5286    0.2331    2.4186 H   0  0  0  0  0  0  0  0  0  0  0  0
    4.2396    1.0297    0.8739 H   0  0  0  0  0  0  0  0  0  0  0  0
    2.3533    2.9166    0.8002 H   0  0  0  0  0  0  0  0  0  0  0  0
    1.4997    3.2668    2.3012 H   0  0  0  0  0  0  0  0  0  0  0  0
   -5.8177   -1.5375   -3.8637 H   0  0  0  0  0  0  0  0  0  0  0  0
    3.8869    2.6348    2.6931 H   0  0  0  0  0  0  0  0  0  0  0  0
    2.7634    1.5438    3.5009 H   0  0  0  0  0  0  0  0  0  0  0  0
  1  2  2  0  0  0  0
  2  3  1  0  0  0  0
  2  4  1  0  0  0  0
  3  5  1  0  0  0  0
  3 17  1  0  0  0  0
  4  6  1  0  0  0  0
  4 18  1  0  0  0  0
  4 19  1  0  0  0  0
  5  7  2  0  0  0  0
  5  8  1  0  0  0  0
  6  9  1  0  0  0  0
  6 10  1  0  0  0  0
  6 20  1  0  0  0  0
  7 11  1  0  0  0  0
  7 21  1  0  0  0  0
  8 12  2  0  0  0  0
  8 22  1  0  0  0  0
  9 13  1  0  0  0  0
  9 23  1  0  0  0  0
  9 24  1  0  0  0  0
 10 14  1  0  0  0  0
 10 25  1  0  0  0  0
 10 26  1  0  0  0  0
 11 15  2  0  0  0  0
 12 15  1  0  0  0  0
 12 27  1  0  0  0  0
 13 16  1  0  0  0  0
 13 28  1  0  0  0  0
 13 29  1  0  0  0  0
 14 16  1  0  0  0  0
 14 30  1  0  0  0  0
 14 31  1  0  0  0  0
 15 32  1  0  0  0  0
 16 33  1  0  0  0  0
 16 34  1  0  0  0  0
M  END
>  <ID>
1

>  <Stereo Isomer>
1

>  <Energy>
17.708

>  <Error>


$$$$
