
 OpenBabel04122007303D

 37 39  0  0  0  0  0  0  0  0999 V2000
   -0.2128   -0.0975    1.7342 O   0  0  0  0  0  0  0  0  0  0  0  0
   -0.3141    0.3400    0.5952 C   0  0  0  0  0  0  0  0  0  0  0  0
   -0.1922    1.6718    0.2241 N   0  0  0  0  0  0  0  0  0  0  0  0
   -0.6324   -0.5494   -0.6012 C   0  0  0  0  0  0  0  0  0  0  0  0
    0.0886    2.7656    1.0304 C   0  0  0  0  0  0  0  0  0  0  0  0
   -0.5267   -2.0535   -0.3029 C   0  0  0  0  0  0  0  0  0  0  0  0
    0.1603    4.0409    0.4457 N   0  0  0  0  0  0  0  0  0  0  0  0
    0.3080    2.7157    2.3671 C   0  0  0  0  0  0  0  0  0  0  0  0
   -1.1996   -2.8616   -1.4252 C   0  0  0  0  0  0  0  0  0  0  0  0
    0.9399   -2.4904   -0.1402 C   0  0  0  0  0  0  0  0  0  0  0  0
    0.4369    5.1497    1.2066 C   0  0  0  0  0  0  0  0  0  0  0  0
    0.0035    4.4950   -0.8426 C   0  0  0  0  0  0  0  0  0  0  0  0
    0.5911    3.8107    3.1773 N   0  0  0  0  0  0  0  0  0  0  0  0
   -1.0772   -4.3659   -1.1942 C   0  0  0  0  0  0  0  0  0  0  0  0
    1.0596   -3.9953    0.0912 C   0  0  0  0  0  0  0  0  0  0  0  0
    0.4673    6.2610    0.5062 N   0  0  0  0  0  0  0  0  0  0  0  0
    0.6523    4.9847    2.6130 C   0  0  0  0  0  0  0  0  0  0  0  0
    0.1970    5.8592   -0.7768 C   0  0  0  0  0  0  0  0  0  0  0  0
    0.3762   -4.7912   -1.0154 C   0  0  0  0  0  0  0  0  0  0  0  0
   -0.3289    1.8650   -0.7603 H   0  0  0  0  0  0  0  0  0  0  0  0
    0.0297   -0.2817   -1.4340 H   0  0  0  0  0  0  0  0  0  0  0  0
   -1.6578   -0.3038   -0.9059 H   0  0  0  0  0  0  0  0  0  0  0  0
   -1.0576   -2.2711    0.6338 H   0  0  0  0  0  0  0  0  0  0  0  0
    0.2765    1.7783    2.9148 H   0  0  0  0  0  0  0  0  0  0  0  0
   -2.2612   -2.5952   -1.4923 H   0  0  0  0  0  0  0  0  0  0  0  0
   -0.7461   -2.6062   -2.3916 H   0  0  0  0  0  0  0  0  0  0  0  0
    1.5108   -2.2187   -1.0375 H   0  0  0  0  0  0  0  0  0  0  0  0
    1.4058   -1.9649    0.7007 H   0  0  0  0  0  0  0  0  0  0  0  0
   -0.2239    3.8476   -1.6750 H   0  0  0  0  0  0  0  0  0  0  0  0
   -1.5174   -4.9054   -2.0404 H   0  0  0  0  0  0  0  0  0  0  0  0
   -1.6522   -4.6458   -0.3030 H   0  0  0  0  0  0  0  0  0  0  0  0
    0.6097   -4.2523    1.0581 H   0  0  0  0  0  0  0  0  0  0  0  0
    2.1174   -4.2760    0.1466 H   0  0  0  0  0  0  0  0  0  0  0  0
    0.8742    5.8734    3.2249 H   0  0  0  0  0  0  0  0  0  0  0  0
    0.1550    6.5735   -1.5901 H   0  0  0  0  0  0  0  0  0  0  0  0
    0.4220   -5.8612   -0.7833 H   0  0  0  0  0  0  0  0  0  0  0  0
    0.9178   -4.6450   -1.9581 H   0  0  0  0  0  0  0  0  0  0  0  0
  1  2  2  0  0  0  0
  2  3  1  0  0  0  0
  2  4  1  0  0  0  0
  3  5  1  0  0  0  0
  3 20  1  0  0  0  0
  4  6  1  0  0  0  0
  4 21  1  0  0  0  0
  4 22  1  0  0  0  0
  5  7  1  0  0  0  0
  5  8  2  0  0  0  0
  6  9  1  0  0  0  0
  6 10  1  0  0  0  0
  6 23  1  0  0  0  0
  7 11  1  0  0  0  0
  7 12  1  0  0  0  0
  8 13  1  0  0  0  0
  8 24  1  0  0  0  0
  9 14  1  0  0  0  0
  9 25  1  0  0  0  0
  9 26  1  0  0  0  0
 10 15  1  0  0  0  0
 10 27  1  0  0  0  0
 10 28  1  0  0  0  0
 11 16  2  0  0  0  0
 11 17  1  0  0  0  0
 12 18  2  0  0  0  0
 12 29  1  0  0  0  0
 13 17  2  0  0  0  0
 14 19  1  0  0  0  0
 14 30  1  0  0  0  0
 14 31  1  0  0  0  0
 15 19  1  0  0  0  0
 15 32  1  0  0  0  0
 15 33  1  0  0  0  0
 16 18  1  0  0  0  0
 17 34  1  0  0  0  0
 18 35  1  0  0  0  0
 19 36  1  0  0  0  0
 19 37  1  0  0  0  0
M  END
>  <ID>
9

>  <Stereo Isomer>
1

>  <Energy>
40.673

>  <Error>


$$$$
