
 OpenBabel04122007303D

 37 39  0  0  0  0  0  0  0  0999 V2000
   -1.3231    0.6496    0.4914 O   0  0  0  0  0  0  0  0  0  0  0  0
   -0.8199   -0.4588    0.6403 C   0  0  0  0  0  0  0  0  0  0  0  0
   -0.4887   -1.0210    1.8607 N   0  0  0  0  0  0  0  0  0  0  0  0
   -0.5730   -1.4173   -0.5143 C   0  0  0  0  0  0  0  0  0  0  0  0
   -0.4785   -0.2713    3.0473 C   0  0  0  0  0  0  0  0  0  0  0  0
   -0.5370   -0.7262   -1.8862 C   0  0  0  0  0  0  0  0  0  0  0  0
    0.2873    0.8940    3.2099 C   0  0  0  0  0  0  0  0  0  0  0  0
   -1.1883   -0.6842    4.1694 C   0  0  0  0  0  0  0  0  0  0  0  0
   -0.5991   -1.7768   -3.0073 C   0  0  0  0  0  0  0  0  0  0  0  0
    0.7228    0.1440   -2.0407 C   0  0  0  0  0  0  0  0  0  0  0  0
    1.1647    1.5241    2.3494 N   0  0  0  0  0  0  0  0  0  0  0  0
    0.2436    1.5638    4.4286 C   0  0  0  0  0  0  0  0  0  0  0  0
   -1.2149   -0.0338    5.3613 N   0  0  0  0  0  0  0  0  0  0  0  0
   -0.5166   -1.1365   -4.3909 C   0  0  0  0  0  0  0  0  0  0  0  0
    0.8030    0.7826   -3.4256 C   0  0  0  0  0  0  0  0  0  0  0  0
    1.5954    2.5795    2.9997 C   0  0  0  0  0  0  0  0  0  0  0  0
    1.0640    2.6487    4.2563 N   0  0  0  0  0  0  0  0  0  0  0  0
   -0.5099    1.1138    5.5004 C   0  0  0  0  0  0  0  0  0  0  0  0
    0.7249   -0.2627   -4.5332 C   0  0  0  0  0  0  0  0  0  0  0  0
   -0.2833   -2.0085    1.9201 H   0  0  0  0  0  0  0  0  0  0  0  0
   -1.3872   -2.1527   -0.4882 H   0  0  0  0  0  0  0  0  0  0  0  0
    0.3638   -1.9609   -0.3398 H   0  0  0  0  0  0  0  0  0  0  0  0
   -1.4177   -0.0769   -1.9833 H   0  0  0  0  0  0  0  0  0  0  0  0
   -1.7967   -1.5839    4.1396 H   0  0  0  0  0  0  0  0  0  0  0  0
    0.2235   -2.4943   -2.8916 H   0  0  0  0  0  0  0  0  0  0  0  0
   -1.5319   -2.3484   -2.9321 H   0  0  0  0  0  0  0  0  0  0  0  0
    1.6195   -0.4667   -1.8741 H   0  0  0  0  0  0  0  0  0  0  0  0
    0.7360    0.9366   -1.2841 H   0  0  0  0  0  0  0  0  0  0  0  0
   -1.4131   -0.5291   -4.5656 H   0  0  0  0  0  0  0  0  0  0  0  0
   -0.5065   -1.9186   -5.1585 H   0  0  0  0  0  0  0  0  0  0  0  0
   -0.0166    1.5021   -3.5432 H   0  0  0  0  0  0  0  0  0  0  0  0
    1.7382    1.3464   -3.5172 H   0  0  0  0  0  0  0  0  0  0  0  0
    2.2858    3.3198    2.6175 H   0  0  0  0  0  0  0  0  0  0  0  0
    1.2543    3.3682    4.9386 H   0  0  0  0  0  0  0  0  0  0  0  0
   -0.5631    1.6159    6.4582 H   0  0  0  0  0  0  0  0  0  0  0  0
    1.6213   -0.8943   -4.5029 H   0  0  0  0  0  0  0  0  0  0  0  0
    0.7169    0.2340   -5.5099 H   0  0  0  0  0  0  0  0  0  0  0  0
  1  2  2  0  0  0  0
  2  3  1  0  0  0  0
  2  4  1  0  0  0  0
  3  5  1  0  0  0  0
  3 20  1  0  0  0  0
  4  6  1  0  0  0  0
  4 21  1  0  0  0  0
  4 22  1  0  0  0  0
  5  7  2  0  0  0  0
  5  8  1  0  0  0  0
  6  9  1  0  0  0  0
  6 10  1  0  0  0  0
  6 23  1  0  0  0  0
  7 11  1  0  0  0  0
  7 12  1  0  0  0  0
  8 13  2  0  0  0  0
  8 24  1  0  0  0  0
  9 14  1  0  0  0  0
  9 25  1  0  0  0  0
  9 26  1  0  0  0  0
 10 15  1  0  0  0  0
 10 27  1  0  0  0  0
 10 28  1  0  0  0  0
 11 16  2  0  0  0  0
 12 17  1  0  0  0  0
 12 18  2  0  0  0  0
 13 18  1  0  0  0  0
 14 19  1  0  0  0  0
 14 29  1  0  0  0  0
 14 30  1  0  0  0  0
 15 19  1  0  0  0  0
 15 31  1  0  0  0  0
 15 32  1  0  0  0  0
 16 17  1  0  0  0  0
 16 33  1  0  0  0  0
 17 34  1  0  0  0  0
 18 35  1  0  0  0  0
 19 36  1  0  0  0  0
 19 37  1  0  0  0  0
M  END
>  <ID>
10

>  <Stereo Isomer>
1

>  <Energy>
22.594

>  <Error>


$$$$
