
Actelion Java MolfileCreator 1.0

 37 39  0  0  0  0  0  0  0  0999 V2000
   -0.2128   -0.0975    1.7342 O   0  0  0  0  0  0  0  0  0  0  0  0
   -0.3141    0.3400    0.5952 C   0  0  0  0  0  0  0  0  0  0  0  0
   -0.1922    1.6718    0.2241 N   0  0  0  0  0  0  0  0  0  0  0  0
   -0.6324   -0.5494   -0.6012 C   0  0  0  0  0  0  0  0  0  0  0  0
    0.0886    2.7656    1.0304 C   0  0  0  0  0  0  0  0  0  0  0  0
   -0.5267   -2.0535   -0.3029 C   0  0  0  0  0  0  0  0  0  0  0  0
    0.1603    4.0409    0.4457 N   0  0  0  0  0  0  0  0  0  0  0  0
    0.3080    2.7157    2.3671 C   0  0  0  0  0  0  0  0  0  0  0  0
   -1.1996   -2.8616   -1.4252 C   0  0  0  0  0  0  0  0  0  0  0  0
    0.9399   -2.4904   -0.1402 C   0  0  0  0  0  0  0  0  0  0  0  0
    0.4369    5.1497    1.2066 C   0  0  0  0  0  0  0  0  0  0  0  0
    0.0035    4.4950   -0.8426 C   0  0  0  0  0  0  0  0  0  0  0  0
    0.5911    3.8107    3.1773 N   0  0  0  0  0  0  0  0  0  0  0  0
   -1.0772   -4.3659   -1.1942 C   0  0  0  0  0  0  0  0  0  0  0  0
    1.0596   -3.9953    0.0912 C   0  0  0  0  0  0  0  0  0  0  0  0
    0.4673    6.2610    0.5062 N   0  0  0  0  0  0  0  0  0  0  0  0
    0.6523    4.9847    2.6130 C   0  0  0  0  0  0  0  0  0  0  0  0
    0.1970    5.8592   -0.7768 C   0  0  0  0  0  0  0  0  0  0  0  0
    0.3762   -4.7912   -1.0154 C   0  0  0  0  0  0  0  0  0  0  0  0
   -0.3289    1.8650   -0.7603 H   0  0  0  0  0  0  0  0  0  0  0  0
    0.0297   -0.2817   -1.4340 H   0  0  0  0  0  0  0  0  0  0  0  0
   -1.6578   -0.3038   -0.9059 H   0  0  0  0  0  0  0  0  0  0  0  0
   -1.0576   -2.2711    0.6338 H   0  0  0  0  0  0  0  0  0  0  0  0
    0.2765    1.7783    2.9148 H   0  0  0  0  0  0  0  0  0  0  0  0
   -2.2612   -2.5952   -1.4923 H   0  0  0  0  0  0  0  0  0  0  0  0
   -0.7461   -2.6062   -2.3916 H   0  0  0  0  0  0  0  0  0  0  0  0
    1.5108   -2.2187   -1.0375 H   0  0  0  0  0  0  0  0  0  0  0  0
    1.4058   -1.9649    0.7007 H   0  0  0  0  0  0  0  0  0  0  0  0
   -0.2239    3.8476   -1.6750 H   0  0  0  0  0  0  0  0  0  0  0  0
   -1.5174   -4.9054   -2.0404 H   0  0  0  0  0  0  0  0  0  0  0  0
   -1.6522   -4.6458   -0.3030 H   0  0  0  0  0  0  0  0  0  0  0  0
    0.6097   -4.2523    1.0581 H   0  0  0  0  0  0  0  0  0  0  0  0
    2.1174   -4.2760    0.1466 H   0  0  0  0  0  0  0  0  0  0  0  0
    0.8742    5.8734    3.2249 H   0  0  0  0  0  0  0  0  0  0  0  0
    0.1550    6.5735   -1.5901 H   0  0  0  0  0  0  0  0  0  0  0  0
    0.4220   -5.8612   -0.7833 H   0  0  0  0  0  0  0  0  0  0  0  0
    0.9178   -4.6450   -1.9581 H   0  0  0  0  0  0  0  0  0  0  0  0
  1  2  2  0  0  0  0
  2  3  1  0  0  0  0
  2  4  1  0  0  0  0
  3  5  1  0  0  0  0
  4  6  1  0  0  0  0
  5  7  1  0  0  0  0
  5  8  2  0  0  0  0
  6  9  1  0  0  0  0
  6 10  1  0  0  0  0
  7 11  1  0  0  0  0
  7 12  1  0  0  0  0
  8 13  1  0  0  0  0
  9 14  1  0  0  0  0
 10 15  1  0  0  0  0
 11 16  2  0  0  0  0
 11 17  1  0  0  0  0
 12 18  2  0  0  0  0
 14 19  1  0  0  0  0
 13 17  2  0  0  0  0
 15 19  1  0  0  0  0
 16 18  1  0  0  0  0
  3 20  1  0  0  0  0
  4 21  1  0  0  0  0
  4 22  1  0  0  0  0
  6 23  1  0  0  0  0
  8 24  1  0  0  0  0
  9 25  1  0  0  0  0
  9 26  1  0  0  0  0
 10 27  1  0  0  0  0
 10 28  1  0  0  0  0
 12 29  1  0  0  0  0
 14 30  1  0  0  0  0
 14 31  1  0  0  0  0
 15 32  1  0  0  0  0
 15 33  1  0  0  0  0
 17 34  1  0  0  0  0
 18 35  1  0  0  0  0
 19 36  1  0  0  0  0
 19 37  1  0  0  0  0
M  END
>  <ID>
9

>  <Stereo Isomer>
1

>  <Energy>
40.673

>  <Error>


$$$$

Actelion Java MolfileCreator 1.0

 37 39  0  0  0  0  0  0  0  0999 V2000
   -1.4047    0.0398    1.0153 O   0  0  0  0  0  0  0  0  0  0  0  0
   -0.9403    0.0425   -0.1180 C   0  0  0  0  0  0  0  0  0  0  0  0
   -1.0410   -0.9965   -1.0256 N   0  0  0  0  0  0  0  0  0  0  0  0
   -0.2205    1.2465   -0.7117 C   0  0  0  0  0  0  0  0  0  0  0  0
   -1.6240   -2.2515   -0.7610 C   0  0  0  0  0  0  0  0  0  0  0  0
    0.2154    2.2829    0.3414 C   0  0  0  0  0  0  0  0  0  0  0  0
   -1.5160   -2.9709    0.4427 C   0  0  0  0  0  0  0  0  0  0  0  0
   -2.3145   -2.9082   -1.7834 C   0  0  0  0  0  0  0  0  0  0  0  0
    0.6240    3.6091   -0.3237 C   0  0  0  0  0  0  0  0  0  0  0  0
    1.3575    1.7696    1.2380 C   0  0  0  0  0  0  0  0  0  0  0  0
   -2.1069   -4.2311    0.5253 C   0  0  0  0  0  0  0  0  0  0  0  0
   -0.9066   -2.8072    1.7110 C   0  0  0  0  0  0  0  0  0  0  0  0
   -2.8884   -4.1330   -1.6942 N   0  0  0  0  0  0  0  0  0  0  0  0
    1.9604    3.5216   -1.0583 C   0  0  0  0  0  0  0  0  0  0  0  0
    2.7021    1.6887    0.5164 C   0  0  0  0  0  0  0  0  0  0  0  0
   -1.8395   -4.6876    1.7866 N   0  0  0  0  0  0  0  0  0  0  0  0
   -2.7983   -4.8086   -0.5279 C   0  0  0  0  0  0  0  0  0  0  0  0
   -1.0880   -3.8549    2.5220 N   0  0  0  0  0  0  0  0  0  0  0  0
    3.0704    3.0132   -0.1442 C   0  0  0  0  0  0  0  0  0  0  0  0
   -0.7808   -0.8077   -1.9859 H   0  0  0  0  0  0  0  0  0  0  0  0
   -0.9250    1.7105   -1.4139 H   0  0  0  0  0  0  0  0  0  0  0  0
    0.6346    0.8947   -1.2989 H   0  0  0  0  0  0  0  0  0  0  0  0
   -0.6474    2.4939    0.9870 H   0  0  0  0  0  0  0  0  0  0  0  0
   -2.4408   -2.4389   -2.7561 H   0  0  0  0  0  0  0  0  0  0  0  0
    0.6997    4.3829    0.4514 H   0  0  0  0  0  0  0  0  0  0  0  0
   -0.1563    3.9430   -1.0177 H   0  0  0  0  0  0  0  0  0  0  0  0
    1.4622    2.4517    2.0921 H   0  0  0  0  0  0  0  0  0  0  0  0
    1.1119    0.7886    1.6594 H   0  0  0  0  0  0  0  0  0  0  0  0
   -0.3312   -1.9656    2.0747 H   0  0  0  0  0  0  0  0  0  0  0  0
    2.2302    4.5114   -1.4440 H   0  0  0  0  0  0  0  0  0  0  0  0
    1.8670    2.8605   -1.9278 H   0  0  0  0  0  0  0  0  0  0  0  0
    2.6748    0.8955   -0.2394 H   0  0  0  0  0  0  0  0  0  0  0  0
    3.4834    1.4096    1.2328 H   0  0  0  0  0  0  0  0  0  0  0  0
   -2.1246   -5.5666    2.2031 H   0  0  0  0  0  0  0  0  0  0  0  0
   -3.2668   -5.7842   -0.4820 H   0  0  0  0  0  0  0  0  0  0  0  0
    3.9964    2.8947   -0.7180 H   0  0  0  0  0  0  0  0  0  0  0  0
    3.2714    3.7616    0.6324 H   0  0  0  0  0  0  0  0  0  0  0  0
  1  2  2  0  0  0  0
  2  3  1  0  0  0  0
  2  4  1  0  0  0  0
  3  5  1  0  0  0  0
  4  6  1  0  0  0  0
  5  7  2  0  0  0  0
  5  8  1  0  0  0  0
  6  9  1  0  0  0  0
  6 10  1  0  0  0  0
  7 11  1  0  0  0  0
  7 12  1  0  0  0  0
  8 13  2  0  0  0  0
  9 14  1  0  0  0  0
 10 15  1  0  0  0  0
 11 16  1  0  0  0  0
 11 17  2  0  0  0  0
 12 18  2  0  0  0  0
 14 19  1  0  0  0  0
 13 17  1  0  0  0  0
 15 19  1  0  0  0  0
 16 18  1  0  0  0  0
  3 20  1  0  0  0  0
  4 21  1  0  0  0  0
  4 22  1  0  0  0  0
  6 23  1  0  0  0  0
  8 24  1  0  0  0  0
  9 25  1  0  0  0  0
  9 26  1  0  0  0  0
 10 27  1  0  0  0  0
 10 28  1  0  0  0  0
 12 29  1  0  0  0  0
 14 30  1  0  0  0  0
 14 31  1  0  0  0  0
 15 32  1  0  0  0  0
 15 33  1  0  0  0  0
 16 34  1  0  0  0  0
 17 35  1  0  0  0  0
 19 36  1  0  0  0  0
 19 37  1  0  0  0  0
M  END
>  <ID>
11

>  <Stereo Isomer>
1

>  <Energy>
28.611

>  <Error>


$$$$

Actelion Java MolfileCreator 1.0

 37 39  0  0  0  0  0  0  0  0999 V2000
   -1.3231    0.6496    0.4914 O   0  0  0  0  0  0  0  0  0  0  0  0
   -0.8199   -0.4588    0.6403 C   0  0  0  0  0  0  0  0  0  0  0  0
   -0.4887   -1.0210    1.8607 N   0  0  0  0  0  0  0  0  0  0  0  0
   -0.5730   -1.4173   -0.5143 C   0  0  0  0  0  0  0  0  0  0  0  0
   -0.4785   -0.2713    3.0473 C   0  0  0  0  0  0  0  0  0  0  0  0
   -0.5370   -0.7262   -1.8862 C   0  0  0  0  0  0  0  0  0  0  0  0
    0.2873    0.8940    3.2099 C   0  0  0  0  0  0  0  0  0  0  0  0
   -1.1883   -0.6842    4.1694 C   0  0  0  0  0  0  0  0  0  0  0  0
   -0.5991   -1.7768   -3.0073 C   0  0  0  0  0  0  0  0  0  0  0  0
    0.7228    0.1440   -2.0407 C   0  0  0  0  0  0  0  0  0  0  0  0
    1.1647    1.5241    2.3494 N   0  0  0  0  0  0  0  0  0  0  0  0
    0.2436    1.5638    4.4286 C   0  0  0  0  0  0  0  0  0  0  0  0
   -1.2149   -0.0338    5.3613 N   0  0  0  0  0  0  0  0  0  0  0  0
   -0.5166   -1.1365   -4.3909 C   0  0  0  0  0  0  0  0  0  0  0  0
    0.8030    0.7826   -3.4256 C   0  0  0  0  0  0  0  0  0  0  0  0
    1.5954    2.5795    2.9997 C   0  0  0  0  0  0  0  0  0  0  0  0
    1.0640    2.6487    4.2563 N   0  0  0  0  0  0  0  0  0  0  0  0
   -0.5099    1.1138    5.5004 C   0  0  0  0  0  0  0  0  0  0  0  0
    0.7249   -0.2627   -4.5332 C   0  0  0  0  0  0  0  0  0  0  0  0
   -0.2833   -2.0085    1.9201 H   0  0  0  0  0  0  0  0  0  0  0  0
   -1.3872   -2.1527   -0.4882 H   0  0  0  0  0  0  0  0  0  0  0  0
    0.3638   -1.9609   -0.3398 H   0  0  0  0  0  0  0  0  0  0  0  0
   -1.4177   -0.0769   -1.9833 H   0  0  0  0  0  0  0  0  0  0  0  0
   -1.7967   -1.5839    4.1396 H   0  0  0  0  0  0  0  0  0  0  0  0
    0.2235   -2.4943   -2.8916 H   0  0  0  0  0  0  0  0  0  0  0  0
   -1.5319   -2.3484   -2.9321 H   0  0  0  0  0  0  0  0  0  0  0  0
    1.6195   -0.4667   -1.8741 H   0  0  0  0  0  0  0  0  0  0  0  0
    0.7360    0.9366   -1.2841 H   0  0  0  0  0  0  0  0  0  0  0  0
   -1.4131   -0.5291   -4.5656 H   0  0  0  0  0  0  0  0  0  0  0  0
   -0.5065   -1.9186   -5.1585 H   0  0  0  0  0  0  0  0  0  0  0  0
   -0.0166    1.5021   -3.5432 H   0  0  0  0  0  0  0  0  0  0  0  0
    1.7382    1.3464   -3.5172 H   0  0  0  0  0  0  0  0  0  0  0  0
    2.2858    3.3198    2.6175 H   0  0  0  0  0  0  0  0  0  0  0  0
    1.2543    3.3682    4.9386 H   0  0  0  0  0  0  0  0  0  0  0  0
   -0.5631    1.6159    6.4582 H   0  0  0  0  0  0  0  0  0  0  0  0
    1.6213   -0.8943   -4.5029 H   0  0  0  0  0  0  0  0  0  0  0  0
    0.7169    0.2340   -5.5099 H   0  0  0  0  0  0  0  0  0  0  0  0
  1  2  2  0  0  0  0
  2  3  1  0  0  0  0
  2  4  1  0  0  0  0
  3  5  1  0  0  0  0
  4  6  1  0  0  0  0
  5  7  2  0  0  0  0
  5  8  1  0  0  0  0
  6  9  1  0  0  0  0
  6 10  1  0  0  0  0
  7 11  1  0  0  0  0
  7 12  1  0  0  0  0
  8 13  2  0  0  0  0
  9 14  1  0  0  0  0
 10 15  1  0  0  0  0
 11 16  2  0  0  0  0
 12 17  1  0  0  0  0
 12 18  2  0  0  0  0
 14 19  1  0  0  0  0
 13 18  1  0  0  0  0
 15 19  1  0  0  0  0
 16 17  1  0  0  0  0
  3 20  1  0  0  0  0
  4 21  1  0  0  0  0
  4 22  1  0  0  0  0
  6 23  1  0  0  0  0
  8 24  1  0  0  0  0
  9 25  1  0  0  0  0
  9 26  1  0  0  0  0
 10 27  1  0  0  0  0
 10 28  1  0  0  0  0
 14 29  1  0  0  0  0
 14 30  1  0  0  0  0
 15 31  1  0  0  0  0
 15 32  1  0  0  0  0
 16 33  1  0  0  0  0
 17 34  1  0  0  0  0
 18 35  1  0  0  0  0
 19 36  1  0  0  0  0
 19 37  1  0  0  0  0
M  END
>  <ID>
10

>  <Stereo Isomer>
1

>  <Energy>
22.594

>  <Error>


$$$$

Actelion Java MolfileCreator 1.0

 38 40  0  0  0  0  0  0  0  0999 V2000
    0.6184    0.5983    1.9826 O   0  0  0  0  0  0  0  0  0  0  0  0
    0.4889    0.4862    0.7700 C   0  0  0  0  0  0  0  0  0  0  0  0
    1.2581   -0.3138   -0.0561 N   0  0  0  0  0  0  0  0  0  0  0  0
   -0.5537    1.2687   -0.0207 C   0  0  0  0  0  0  0  0  0  0  0  0
    2.3123   -1.1683    0.3323 C   0  0  0  0  0  0  0  0  0  0  0  0
   -1.6026    1.9716    0.8621 C   0  0  0  0  0  0  0  0  0  0  0  0
    3.0156   -1.8905   -0.6576 C   0  0  0  0  0  0  0  0  0  0  0  0
    2.7390   -1.3815    1.6436 C   0  0  0  0  0  0  0  0  0  0  0  0
   -2.3878    3.0228    0.0580 C   0  0  0  0  0  0  0  0  0  0  0  0
   -2.5774    0.9803    1.5248 C   0  0  0  0  0  0  0  0  0  0  0  0
    4.0549   -2.7369   -0.2643 C   0  0  0  0  0  0  0  0  0  0  0  0
    2.9332   -1.9882   -2.0810 C   0  0  0  0  0  0  0  0  0  0  0  0
    3.7515   -2.2083    2.0144 N   0  0  0  0  0  0  0  0  0  0  0  0
   -3.3685    2.4033   -0.9357 C   0  0  0  0  0  0  0  0  0  0  0  0
   -3.5737    0.3641    0.5433 C   0  0  0  0  0  0  0  0  0  0  0  0
    4.5730   -3.3163   -1.4000 N   0  0  0  0  0  0  0  0  0  0  0  0
    4.4204   -2.8939    1.0650 C   0  0  0  0  0  0  0  0  0  0  0  0
    3.9007   -2.8699   -2.5055 C   0  0  0  0  0  0  0  0  0  0  0  0
   -4.3220    1.4311   -0.2491 C   0  0  0  0  0  0  0  0  0  0  0  0
    1.0582   -0.2883   -1.0472 H   0  0  0  0  0  0  0  0  0  0  0  0
   -1.0302    0.5948   -0.7409 H   0  0  0  0  0  0  0  0  0  0  0  0
    0.0000    2.0197   -0.5990 H   0  0  0  0  0  0  0  0  0  0  0  0
   -1.0710    2.5037    1.6623 H   0  0  0  0  0  0  0  0  0  0  0  0
    2.2705   -0.8832    2.4865 H   0  0  0  0  0  0  0  0  0  0  0  0
   -1.6979    3.6894   -0.4727 H   0  0  0  0  0  0  0  0  0  0  0  0
   -2.9498    3.6543    0.7585 H   0  0  0  0  0  0  0  0  0  0  0  0
   -2.0318    0.1807    2.0377 H   0  0  0  0  0  0  0  0  0  0  0  0
   -3.1406    1.5138    2.3019 H   0  0  0  0  0  0  0  0  0  0  0  0
    2.2411   -1.4695   -2.7304 H   0  0  0  0  0  0  0  0  0  0  0  0
   -3.9457    3.1979   -1.4224 H   0  0  0  0  0  0  0  0  0  0  0  0
   -2.8191    1.8830   -1.7290 H   0  0  0  0  0  0  0  0  0  0  0  0
   -3.0525   -0.3089   -0.1471 H   0  0  0  0  0  0  0  0  0  0  0  0
   -4.2937   -0.2519    1.0943 H   0  0  0  0  0  0  0  0  0  0  0  0
    5.3396   -3.9759   -1.4107 H   0  0  0  0  0  0  0  0  0  0  0  0
    5.2213   -3.5426    1.3976 H   0  0  0  0  0  0  0  0  0  0  0  0
    4.1679   -3.2164   -3.4953 H   0  0  0  0  0  0  0  0  0  0  0  0
   -4.9824    1.9879    0.4272 H   0  0  0  0  0  0  0  0  0  0  0  0
   -4.9642    0.9528   -0.9972 H   0  0  0  0  0  0  0  0  0  0  0  0
  1  2  2  0  0  0  0
  2  3  1  0  0  0  0
  2  4  1  0  0  0  0
  3  5  1  0  0  0  0
  4  6  1  0  0  0  0
  5  7  2  0  0  0  0
  5  8  1  0  0  0  0
  6  9  1  0  0  0  0
  6 10  1  0  0  0  0
  7 11  1  0  0  0  0
  7 12  1  0  0  0  0
  8 13  2  0  0  0  0
  9 14  1  0  0  0  0
 10 15  1  0  0  0  0
 11 16  1  0  0  0  0
 11 17  2  0  0  0  0
 12 18  2  0  0  0  0
 14 19  1  0  0  0  0
 13 17  1  0  0  0  0
 15 19  1  0  0  0  0
 16 18  1  0  0  0  0
  3 20  1  0  0  0  0
  4 21  1  0  0  0  0
  4 22  1  0  0  0  0
  6 23  1  0  0  0  0
  8 24  1  0  0  0  0
  9 25  1  0  0  0  0
  9 26  1  0  0  0  0
 10 27  1  0  0  0  0
 10 28  1  0  0  0  0
 12 29  1  0  0  0  0
 14 30  1  0  0  0  0
 14 31  1  0  0  0  0
 15 32  1  0  0  0  0
 15 33  1  0  0  0  0
 16 34  1  0  0  0  0
 17 35  1  0  0  0  0
 18 36  1  0  0  0  0
 19 37  1  0  0  0  0
 19 38  1  0  0  0  0
M  END
>  <ID>
7

>  <Stereo Isomer>
1

>  <Energy>
22.364

>  <Error>


$$$$

Actelion Java MolfileCreator 1.0

 39 41  0  0  0  0  0  0  0  0999 V2000
   -1.7124    1.9459   -0.0368 O   0  0  0  0  0  0  0  0  0  0  0  0
   -0.9916    1.0653   -0.4936 C   0  0  0  0  0  0  0  0  0  0  0  0
   -1.1693   -0.2942   -0.3168 N   0  0  0  0  0  0  0  0  0  0  0  0
    0.2311    1.4059   -1.3277 C   0  0  0  0  0  0  0  0  0  0  0  0
   -2.1950   -0.8984    0.4537 C   0  0  0  0  0  0  0  0  0  0  0  0
    1.3685    1.9652   -0.4596 C   0  0  0  0  0  0  0  0  0  0  0  0
   -2.6164   -2.2277    0.1659 C   0  0  0  0  0  0  0  0  0  0  0  0
   -2.7736   -0.2509    1.5449 C   0  0  0  0  0  0  0  0  0  0  0  0
    2.4531    2.5866   -1.3546 C   0  0  0  0  0  0  0  0  0  0  0  0
    1.9765    0.8814    0.4473 C   0  0  0  0  0  0  0  0  0  0  0  0
   -3.5855   -2.8363    0.9918 C   0  0  0  0  0  0  0  0  0  0  0  0
   -2.1469   -3.0084   -0.9174 C   0  0  0  0  0  0  0  0  0  0  0  0
   -3.7020   -0.8101    2.3496 N   0  0  0  0  0  0  0  0  0  0  0  0
    3.6303    3.1163   -0.5399 C   0  0  0  0  0  0  0  0  0  0  0  0
    3.1579    1.4133    1.2560 C   0  0  0  0  0  0  0  0  0  0  0  0
   -4.0409   -4.0937    0.7988 N   0  0  0  0  0  0  0  0  0  0  0  0
   -4.0721   -2.0773    2.0428 C   0  0  0  0  0  0  0  0  0  0  0  0
   -2.6161   -4.3025   -1.1225 C   0  0  0  0  0  0  0  0  0  0  0  0
    4.2218    2.0362    0.3590 C   0  0  0  0  0  0  0  0  0  0  0  0
   -3.5537   -4.7974   -0.2422 C   0  0  0  0  0  0  0  0  0  0  0  0
   -0.5272   -0.9156   -0.7883 H   0  0  0  0  0  0  0  0  0  0  0  0
   -0.0899    2.1538   -2.0636 H   0  0  0  0  0  0  0  0  0  0  0  0
    0.5705    0.5334   -1.8980 H   0  0  0  0  0  0  0  0  0  0  0  0
    0.9631    2.7576    0.1848 H   0  0  0  0  0  0  0  0  0  0  0  0
   -2.4894    0.7555    1.8384 H   0  0  0  0  0  0  0  0  0  0  0  0
    2.8175    1.8390   -2.0709 H   0  0  0  0  0  0  0  0  0  0  0  0
    2.0262    3.4078   -1.9428 H   0  0  0  0  0  0  0  0  0  0  0  0
    1.2206    0.4988    1.1425 H   0  0  0  0  0  0  0  0  0  0  0  0
    2.3096    0.0308   -0.1610 H   0  0  0  0  0  0  0  0  0  0  0  0
   -1.4257   -2.6152   -1.6270 H   0  0  0  0  0  0  0  0  0  0  0  0
    4.4041    3.4973   -1.2159 H   0  0  0  0  0  0  0  0  0  0  0  0
    3.2978    3.9621    0.0743 H   0  0  0  0  0  0  0  0  0  0  0  0
    3.6001    0.5985    1.8403 H   0  0  0  0  0  0  0  0  0  0  0  0
    2.8002    2.1626    1.9730 H   0  0  0  0  0  0  0  0  0  0  0  0
   -4.8221   -2.5016    2.7060 H   0  0  0  0  0  0  0  0  0  0  0  0
   -2.2627   -4.9045   -1.9523 H   0  0  0  0  0  0  0  0  0  0  0  0
    5.0197    2.4651    0.9755 H   0  0  0  0  0  0  0  0  0  0  0  0
    4.6803    1.2556   -0.2604 H   0  0  0  0  0  0  0  0  0  0  0  0
   -3.9562   -5.8004   -0.3533 H   0  0  0  0  0  0  0  0  0  0  0  0
  1  2  2  0  0  0  0
  2  3  1  0  0  0  0
  2  4  1  0  0  0  0
  3  5  1  0  0  0  0
  4  6  1  0  0  0  0
  5  7  1  0  0  0  0
  5  8  2  0  0  0  0
  6  9  1  0  0  0  0
  6 10  1  0  0  0  0
  7 11  1  0  0  0  0
  7 12  2  0  0  0  0
  8 13  1  0  0  0  0
  9 14  1  0  0  0  0
 10 15  1  0  0  0  0
 11 16  2  0  0  0  0
 11 17  1  0  0  0  0
 12 18  1  0  0  0  0
 14 19  1  0  0  0  0
 16 20  1  0  0  0  0
 13 17  2  0  0  0  0
 15 19  1  0  0  0  0
 18 20  2  0  0  0  0
  3 21  1  0  0  0  0
  4 22  1  0  0  0  0
  4 23  1  0  0  0  0
  6 24  1  0  0  0  0
  8 25  1  0  0  0  0
  9 26  1  0  0  0  0
  9 27  1  0  0  0  0
 10 28  1  0  0  0  0
 10 29  1  0  0  0  0
 12 30  1  0  0  0  0
 14 31  1  0  0  0  0
 14 32  1  0  0  0  0
 15 33  1  0  0  0  0
 15 34  1  0  0  0  0
 17 35  1  0  0  0  0
 18 36  1  0  0  0  0
 19 37  1  0  0  0  0
 19 38  1  0  0  0  0
 20 39  1  0  0  0  0
M  END
>  <ID>
6

>  <Stereo Isomer>
1

>  <Energy>
59.011

>  <Error>


$$$$

Actelion Java MolfileCreator 1.0

 37 39  0  0  0  0  0  0  0  0999 V2000
    1.7178   -0.2713    0.2412 O   0  0  0  0  0  0  0  0  0  0  0  0
    0.8168    0.4594   -0.1484 C   0  0  0  0  0  0  0  0  0  0  0  0
    0.4376    1.6691    0.4092 N   0  0  0  0  0  0  0  0  0  0  0  0
    0.0125    0.1506   -1.4077 C   0  0  0  0  0  0  0  0  0  0  0  0
    0.8273    2.2638    1.5915 C   0  0  0  0  0  0  0  0  0  0  0  0
    0.1433   -1.3097   -1.8814 C   0  0  0  0  0  0  0  0  0  0  0  0
    1.4485    1.5814    2.6762 C   0  0  0  0  0  0  0  0  0  0  0  0
    0.5727    3.5842    1.7677 C   0  0  0  0  0  0  0  0  0  0  0  0
   -0.5512   -2.3033   -0.9316 C   0  0  0  0  0  0  0  0  0  0  0  0
   -0.4020   -1.4788   -3.3104 C   0  0  0  0  0  0  0  0  0  0  0  0
    1.7893    2.3749    3.7506 N   0  0  0  0  0  0  0  0  0  0  0  0
    1.8004    0.3054    3.0624 C   0  0  0  0  0  0  0  0  0  0  0  0
    0.9023    4.3547    2.8683 N   0  0  0  0  0  0  0  0  0  0  0  0
   -2.0765   -2.2409   -1.0024 C   0  0  0  0  0  0  0  0  0  0  0  0
   -1.9257   -1.3999   -3.3813 C   0  0  0  0  0  0  0  0  0  0  0  0
    2.3823    1.7111    4.7656 N   0  0  0  0  0  0  0  0  0  0  0  0
    1.5161    3.7362    3.8364 C   0  0  0  0  0  0  0  0  0  0  0  0
    2.3857    0.4468    4.3372 C   0  0  0  0  0  0  0  0  0  0  0  0
   -2.5834   -2.3966   -2.4325 C   0  0  0  0  0  0  0  0  0  0  0  0
   -0.1541    2.2396   -0.1838 H   0  0  0  0  0  0  0  0  0  0  0  0
    0.3908    0.8242   -2.1875 H   0  0  0  0  0  0  0  0  0  0  0  0
   -1.0359    0.4164   -1.2335 H   0  0  0  0  0  0  0  0  0  0  0  0
    1.2114   -1.5634   -1.9079 H   0  0  0  0  0  0  0  0  0  0  0  0
    0.0846    4.1540    0.9797 H   0  0  0  0  0  0  0  0  0  0  0  0
   -0.2288   -2.1440    0.1033 H   0  0  0  0  0  0  0  0  0  0  0  0
   -0.2325   -3.3197   -1.1983 H   0  0  0  0  0  0  0  0  0  0  0  0
   -0.0830   -2.4562   -3.6955 H   0  0  0  0  0  0  0  0  0  0  0  0
    0.0369   -0.7266   -3.9766 H   0  0  0  0  0  0  0  0  0  0  0  0
    1.6680   -0.6168    2.5167 H   0  0  0  0  0  0  0  0  0  0  0  0
   -2.4325   -1.2913   -0.5869 H   0  0  0  0  0  0  0  0  0  0  0  0
   -2.5026   -3.0338   -0.3768 H   0  0  0  0  0  0  0  0  0  0  0  0
   -2.2542   -1.6018   -4.4074 H   0  0  0  0  0  0  0  0  0  0  0  0
   -2.2598   -0.3844   -3.1388 H   0  0  0  0  0  0  0  0  0  0  0  0
    1.8229    4.2739    4.7473 H   0  0  0  0  0  0  0  0  0  0  0  0
    2.8053   -0.3247    4.9708 H   0  0  0  0  0  0  0  0  0  0  0  0
   -2.3790   -3.4169   -2.7801 H   0  0  0  0  0  0  0  0  0  0  0  0
   -3.6711   -2.2656   -2.4549 H   0  0  0  0  0  0  0  0  0  0  0  0
  1  2  2  0  0  0  0
  2  3  1  0  0  0  0
  2  4  1  0  0  0  0
  3  5  1  0  0  0  0
  4  6  1  0  0  0  0
  5  7  1  0  0  0  0
  5  8  2  0  0  0  0
  6  9  1  0  0  0  0
  6 10  1  0  0  0  0
  7 11  1  0  0  0  0
  7 12  2  0  0  0  0
  8 13  1  0  0  0  0
  9 14  1  0  0  0  0
 10 15  1  0  0  0  0
 11 16  1  0  0  0  0
 11 17  1  0  0  0  0
 12 18  1  0  0  0  0
 14 19  1  0  0  0  0
 13 17  2  0  0  0  0
 15 19  1  0  0  0  0
 16 18  2  0  0  0  0
  3 20  1  0  0  0  0
  4 21  1  0  0  0  0
  4 22  1  0  0  0  0
  6 23  1  0  0  0  0
  8 24  1  0  0  0  0
  9 25  1  0  0  0  0
  9 26  1  0  0  0  0
 10 27  1  0  0  0  0
 10 28  1  0  0  0  0
 12 29  1  0  0  0  0
 14 30  1  0  0  0  0
 14 31  1  0  0  0  0
 15 32  1  0  0  0  0
 15 33  1  0  0  0  0
 17 34  1  0  0  0  0
 18 35  1  0  0  0  0
 19 36  1  0  0  0  0
 19 37  1  0  0  0  0
M  END
>  <ID>
8

>  <Stereo Isomer>
1

>  <Energy>
60.331

>  <Error>


$$$$

Actelion Java MolfileCreator 1.0

 40 42  0  0  0  0  0  0  0  0999 V2000
    2.0930   -2.3408    0.8992 O   0  0  0  0  0  0  0  0  0  0  0  0
    1.2602   -1.6670    0.2864 C   0  0  0  0  0  0  0  0  0  0  0  0
    1.2072   -1.7752   -1.0736 N   0  0  0  0  0  0  0  0  0  0  0  0
    0.4033   -0.6480    1.0199 C   0  0  0  0  0  0  0  0  0  0  0  0
    0.2938   -1.2871   -1.9819 C   0  0  0  0  0  0  0  0  0  0  0  0
    0.8715    0.8003    0.7727 C   0  0  0  0  0  0  0  0  0  0  0  0
   -1.1275   -1.3160   -1.8563 N   0  0  0  0  0  0  0  0  0  0  0  0
    0.8212   -0.7469   -3.1123 C   0  0  0  0  0  0  0  0  0  0  0  0
    2.2515    1.0945    1.3880 C   0  0  0  0  0  0  0  0  0  0  0  0
   -0.1639    1.8107    1.2966 C   0  0  0  0  0  0  0  0  0  0  0  0
   -1.9364   -0.6122   -2.8092 C   0  0  0  0  0  0  0  0  0  0  0  0
   -1.8230   -2.1420   -0.9798 C   0  0  0  0  0  0  0  0  0  0  0  0
    0.0390   -0.1360   -4.0656 N   0  0  0  0  0  0  0  0  0  0  0  0
    2.2244    1.1794    2.9132 C   0  0  0  0  0  0  0  0  0  0  0  0
   -0.2027    1.8856    2.8218 C   0  0  0  0  0  0  0  0  0  0  0  0
   -3.3143   -0.5147   -2.7363 N   0  0  0  0  0  0  0  0  0  0  0  0
   -1.3213   -0.0484   -3.8766 C   0  0  0  0  0  0  0  0  0  0  0  0
   -3.1574   -2.1758   -0.8947 C   0  0  0  0  0  0  0  0  0  0  0  0
    1.1772    2.1740    3.4049 C   0  0  0  0  0  0  0  0  0  0  0  0
   -3.8556   -1.2567   -1.8222 C   0  0  0  0  0  0  0  0  0  0  0  0
    2.0363   -2.2193   -1.4502 H   0  0  0  0  0  0  0  0  0  0  0  0
    0.4356   -0.9001    2.0860 H   0  0  0  0  0  0  0  0  0  0  0  0
   -0.6412   -0.7506    0.7330 H   0  0  0  0  0  0  0  0  0  0  0  0
    0.9576    0.9550   -0.3099 H   0  0  0  0  0  0  0  0  0  0  0  0
    1.8860   -0.6931   -3.3109 H   0  0  0  0  0  0  0  0  0  0  0  0
    2.9855    0.3441    1.0742 H   0  0  0  0  0  0  0  0  0  0  0  0
    2.6105    2.0545    0.9936 H   0  0  0  0  0  0  0  0  0  0  0  0
   -1.1618    1.5663    0.9136 H   0  0  0  0  0  0  0  0  0  0  0  0
    0.0832    2.8050    0.9023 H   0  0  0  0  0  0  0  0  0  0  0  0
   -1.2113   -2.7979   -0.3702 H   0  0  0  0  0  0  0  0  0  0  0  0
    0.4612    0.2959   -4.8785 H   0  0  0  0  0  0  0  0  0  0  0  0
    3.2128    1.4811    3.2788 H   0  0  0  0  0  0  0  0  0  0  0  0
    2.0226    0.1906    3.3407 H   0  0  0  0  0  0  0  0  0  0  0  0
   -0.5873    0.9451    3.2331 H   0  0  0  0  0  0  0  0  0  0  0  0
   -0.9008    2.6720    3.1309 H   0  0  0  0  0  0  0  0  0  0  0  0
   -1.8712    0.4799   -4.6472 H   0  0  0  0  0  0  0  0  0  0  0  0
   -3.7181   -2.8150   -0.2310 H   0  0  0  0  0  0  0  0  0  0  0  0
    1.1286    2.1480    4.4993 H   0  0  0  0  0  0  0  0  0  0  0  0
    1.4833    3.1896    3.1246 H   0  0  0  0  0  0  0  0  0  0  0  0
   -4.9519   -1.2288   -1.7066 H   0  0  0  0  0  0  0  0  0  0  0  0
  1  2  2  0  0  0  0
  2  3  1  0  0  0  0
  2  4  1  0  0  0  0
  3  5  1  0  0  0  0
  4  6  1  0  0  0  0
  5  7  1  0  0  0  0
  5  8  2  0  0  0  0
  6  9  1  0  0  0  0
  6 10  1  0  0  0  0
  7 11  1  0  0  0  0
  7 12  1  0  0  0  0
  8 13  1  0  0  0  0
  9 14  1  0  0  0  0
 10 15  1  0  0  0  0
 11 16  1  0  0  0  0
 11 17  2  0  0  0  0
 12 18  2  0  0  0  0
 14 19  1  0  0  0  0
 16 20  2  0  0  0  0
 13 17  1  0  0  0  0
 15 19  1  0  0  0  0
 18 20  1  0  0  0  0
  3 21  1  0  0  0  0
  4 22  1  0  0  0  0
  4 23  1  0  0  0  0
  6 24  1  0  0  0  0
  8 25  1  0  0  0  0
  9 26  1  0  0  0  0
  9 27  1  0  0  0  0
 10 28  1  0  0  0  0
 10 29  1  0  0  0  0
 12 30  1  0  0  0  0
 13 31  1  0  0  0  0
 14 32  1  0  0  0  0
 14 33  1  0  0  0  0
 15 34  1  0  0  0  0
 15 35  1  0  0  0  0
 17 36  1  0  0  0  0
 18 37  1  0  0  0  0
 19 38  1  0  0  0  0
 19 39  1  0  0  0  0
 20 40  1  0  0  0  0
M  END
>  <ID>
12

>  <Stereo Isomer>
1

>  <Energy>
36.764

>  <Error>


$$$$

Actelion Java MolfileCreator 1.0

 39 40  0  0  0  0  0  0  0  0999 V2000
    0.4327    0.1480    1.5675 O   0  0  0  0  0  0  0  0  0  0  0  0
    0.2364   -0.2678    0.4326 C   0  0  0  0  0  0  0  0  0  0  0  0
   -0.9979   -0.5710   -0.1183 N   0  0  0  0  0  0  0  0  0  0  0  0
    1.3704   -0.5496   -0.5458 C   0  0  0  0  0  0  0  0  0  0  0  0
   -2.2581   -0.4348    0.5042 C   0  0  0  0  0  0  0  0  0  0  0  0
    2.7305    0.0095   -0.0983 C   0  0  0  0  0  0  0  0  0  0  0  0
   -2.4711    0.0772    1.7784 C   0  0  0  0  0  0  0  0  0  0  0  0
   -3.3875   -0.8413   -0.2192 C   0  0  0  0  0  0  0  0  0  0  0  0
    2.7701    1.5437   -0.2121 C   0  0  0  0  0  0  0  0  0  0  0  0
    3.8584   -0.6140   -0.9375 C   0  0  0  0  0  0  0  0  0  0  0  0
   -3.6949    0.2001    2.3468 N   0  0  0  0  0  0  0  0  0  0  0  0
   -4.6761   -0.7387    0.3188 C   0  0  0  0  0  0  0  0  0  0  0  0
    4.1391    2.1041    0.1678 C   0  0  0  0  0  0  0  0  0  0  0  0
    5.2262   -0.0513   -0.5587 C   0  0  0  0  0  0  0  0  0  0  0  0
   -4.7531   -0.2088    1.6062 C   0  0  0  0  0  0  0  0  0  0  0  0
   -5.7616   -1.1521   -0.4298 N   0  0  0  0  0  0  0  0  0  0  0  0
    5.2551    1.4701   -0.6555 C   0  0  0  0  0  0  0  0  0  0  0  0
   -7.1256   -1.0840    0.0421 C   0  0  0  0  0  0  0  0  0  0  0  0
   -1.0030   -0.9353   -1.0625 H   0  0  0  0  0  0  0  0  0  0  0  0
    1.4328   -1.6412   -0.6420 H   0  0  0  0  0  0  0  0  0  0  0  0
    1.1028   -0.1490   -1.5314 H   0  0  0  0  0  0  0  0  0  0  0  0
    2.9018   -0.2632    0.9519 H   0  0  0  0  0  0  0  0  0  0  0  0
   -1.6627    0.4214    2.4142 H   0  0  0  0  0  0  0  0  0  0  0  0
   -3.2699   -1.2471   -1.2197 H   0  0  0  0  0  0  0  0  0  0  0  0
    2.0106    1.9961    0.4352 H   0  0  0  0  0  0  0  0  0  0  0  0
    2.5306    1.8469   -1.2394 H   0  0  0  0  0  0  0  0  0  0  0  0
    3.8684   -1.7020   -0.8000 H   0  0  0  0  0  0  0  0  0  0  0  0
    3.6745   -0.4302   -2.0039 H   0  0  0  0  0  0  0  0  0  0  0  0
    4.3236    1.9242    1.2341 H   0  0  0  0  0  0  0  0  0  0  0  0
    4.1456    3.1901    0.0216 H   0  0  0  0  0  0  0  0  0  0  0  0
    5.4756   -0.3573    0.4648 H   0  0  0  0  0  0  0  0  0  0  0  0
    5.9939   -0.4768   -1.2149 H   0  0  0  0  0  0  0  0  0  0  0  0
   -5.7068   -0.0881    2.1105 H   0  0  0  0  0  0  0  0  0  0  0  0
   -5.6048   -1.5278   -1.3568 H   0  0  0  0  0  0  0  0  0  0  0  0
    5.1505    1.7711   -1.7052 H   0  0  0  0  0  0  0  0  0  0  0  0
    6.2260    1.8438   -0.3113 H   0  0  0  0  0  0  0  0  0  0  0  0
   -7.7996   -1.4687   -0.7298 H   0  0  0  0  0  0  0  0  0  0  0  0
   -7.4188   -0.0511    0.2556 H   0  0  0  0  0  0  0  0  0  0  0  0
   -7.2640   -1.6951    0.9398 H   0  0  0  0  0  0  0  0  0  0  0  0
  1  2  2  0  0  0  0
  2  3  1  0  0  0  0
  2  4  1  0  0  0  0
  3  5  1  0  0  0  0
  4  6  1  0  0  0  0
  5  7  2  0  0  0  0
  5  8  1  0  0  0  0
  6  9  1  0  0  0  0
  6 10  1  0  0  0  0
  7 11  1  0  0  0  0
  8 12  2  0  0  0  0
  9 13  1  0  0  0  0
 10 14  1  0  0  0  0
 11 15  2  0  0  0  0
 12 16  1  0  0  0  0
 13 17  1  0  0  0  0
 16 18  1  0  0  0  0
 12 15  1  0  0  0  0
 14 17  1  0  0  0  0
  3 19  1  0  0  0  0
  4 20  1  0  0  0  0
  4 21  1  0  0  0  0
  6 22  1  0  0  0  0
  7 23  1  0  0  0  0
  8 24  1  0  0  0  0
  9 25  1  0  0  0  0
  9 26  1  0  0  0  0
 10 27  1  0  0  0  0
 10 28  1  0  0  0  0
 13 29  1  0  0  0  0
 13 30  1  0  0  0  0
 14 31  1  0  0  0  0
 14 32  1  0  0  0  0
 15 33  1  0  0  0  0
 16 34  1  0  0  0  0
 17 35  1  0  0  0  0
 17 36  1  0  0  0  0
 18 37  1  0  0  0  0
 18 38  1  0  0  0  0
 18 39  1  0  0  0  0
M  END
>  <ID>
3

>  <Stereo Isomer>
1

>  <Energy>
34.524

>  <Error>


$$$$

Actelion Java MolfileCreator 1.0

 42 43  0  0  0  0  0  0  0  0999 V2000
    1.7433   -1.6703   -1.7913 O   0  0  0  0  0  0  0  0  0  0  0  0
    0.6736   -1.1154   -1.5675 C   0  0  0  0  0  0  0  0  0  0  0  0
   -0.0207   -1.1264   -0.3723 N   0  0  0  0  0  0  0  0  0  0  0  0
   -0.0291   -0.3123   -2.6492 C   0  0  0  0  0  0  0  0  0  0  0  0
    0.3694   -1.7630    0.8267 C   0  0  0  0  0  0  0  0  0  0  0  0
    0.0683    1.2033   -2.4143 C   0  0  0  0  0  0  0  0  0  0  0  0
    1.5454   -2.4772    1.0043 C   0  0  0  0  0  0  0  0  0  0  0  0
   -0.4965   -1.6634    1.9279 C   0  0  0  0  0  0  0  0  0  0  0  0
   -0.8544    1.9460   -3.3942 C   0  0  0  0  0  0  0  0  0  0  0  0
    1.5162    1.7030   -2.5571 C   0  0  0  0  0  0  0  0  0  0  0  0
    1.8897   -3.0721    2.1681 N   0  0  0  0  0  0  0  0  0  0  0  0
   -0.2039   -2.2562    3.1675 C   0  0  0  0  0  0  0  0  0  0  0  0
   -0.7548    3.4608   -3.2325 C   0  0  0  0  0  0  0  0  0  0  0  0
    1.6115    3.2191   -2.3991 C   0  0  0  0  0  0  0  0  0  0  0  0
    1.0156   -2.9445    3.1986 C   0  0  0  0  0  0  0  0  0  0  0  0
   -1.0565   -2.1620    4.2618 N   0  0  0  0  0  0  0  0  0  0  0  0
    0.6842    3.9466   -3.3664 C   0  0  0  0  0  0  0  0  0  0  0  0
   -2.3179   -1.4376    4.1857 C   0  0  0  0  0  0  0  0  0  0  0  0
   -0.7103   -2.7947    5.5297 C   0  0  0  0  0  0  0  0  0  0  0  0
   -0.9023   -0.6305   -0.3486 H   0  0  0  0  0  0  0  0  0  0  0  0
   -1.0804   -0.6263   -2.6728 H   0  0  0  0  0  0  0  0  0  0  0  0
    0.4029   -0.5852   -3.6196 H   0  0  0  0  0  0  0  0  0  0  0  0
   -0.2681    1.4312   -1.3939 H   0  0  0  0  0  0  0  0  0  0  0  0
    2.2779   -2.6085    0.2157 H   0  0  0  0  0  0  0  0  0  0  0  0
   -1.4200   -1.1077    1.8063 H   0  0  0  0  0  0  0  0  0  0  0  0
   -0.5964    1.6757   -4.4263 H   0  0  0  0  0  0  0  0  0  0  0  0
   -1.8943    1.6361   -3.2353 H   0  0  0  0  0  0  0  0  0  0  0  0
    1.9135    1.4175   -3.5396 H   0  0  0  0  0  0  0  0  0  0  0  0
    2.1577    1.2293   -1.8051 H   0  0  0  0  0  0  0  0  0  0  0  0
   -1.1484    3.7494   -2.2501 H   0  0  0  0  0  0  0  0  0  0  0  0
   -1.3814    3.9534   -3.9846 H   0  0  0  0  0  0  0  0  0  0  0  0
    1.3541    3.4946   -1.3689 H   0  0  0  0  0  0  0  0  0  0  0  0
    2.6452    3.5421   -2.5667 H   0  0  0  0  0  0  0  0  0  0  0  0
    1.3574   -3.4467    4.0983 H   0  0  0  0  0  0  0  0  0  0  0  0
    0.7287    5.0255   -3.1796 H   0  0  0  0  0  0  0  0  0  0  0  0
    1.0301    3.7855   -4.3948 H   0  0  0  0  0  0  0  0  0  0  0  0
   -2.9755   -1.8792    3.4289 H   0  0  0  0  0  0  0  0  0  0  0  0
   -2.1471   -0.3822    3.9467 H   0  0  0  0  0  0  0  0  0  0  0  0
   -2.8639   -1.4637    5.1350 H   0  0  0  0  0  0  0  0  0  0  0  0
   -0.6084   -3.8788    5.4087 H   0  0  0  0  0  0  0  0  0  0  0  0
   -1.4790   -2.6308    6.2926 H   0  0  0  0  0  0  0  0  0  0  0  0
    0.2245   -2.3842    5.9272 H   0  0  0  0  0  0  0  0  0  0  0  0
  1  2  2  0  0  0  0
  2  3  1  0  0  0  0
  2  4  1  0  0  0  0
  3  5  1  0  0  0  0
  4  6  1  0  0  0  0
  5  7  2  0  0  0  0
  5  8  1  0  0  0  0
  6  9  1  0  0  0  0
  6 10  1  0  0  0  0
  7 11  1  0  0  0  0
  8 12  2  0  0  0  0
  9 13  1  0  0  0  0
 10 14  1  0  0  0  0
 11 15  2  0  0  0  0
 12 16  1  0  0  0  0
 13 17  1  0  0  0  0
 16 18  1  0  0  0  0
 16 19  1  0  0  0  0
 12 15  1  0  0  0  0
 14 17  1  0  0  0  0
  3 20  1  0  0  0  0
  4 21  1  0  0  0  0
  4 22  1  0  0  0  0
  6 23  1  0  0  0  0
  7 24  1  0  0  0  0
  8 25  1  0  0  0  0
  9 26  1  0  0  0  0
  9 27  1  0  0  0  0
 10 28  1  0  0  0  0
 10 29  1  0  0  0  0
 13 30  1  0  0  0  0
 13 31  1  0  0  0  0
 14 32  1  0  0  0  0
 14 33  1  0  0  0  0
 15 34  1  0  0  0  0
 17 35  1  0  0  0  0
 17 36  1  0  0  0  0
 18 37  1  0  0  0  0
 18 38  1  0  0  0  0
 18 39  1  0  0  0  0
 19 40  1  0  0  0  0
 19 41  1  0  0  0  0
 19 42  1  0  0  0  0
M  END
>  <ID>
4

>  <Stereo Isomer>
1

>  <Energy>
42.216

>  <Error>


$$$$

Actelion Java MolfileCreator 1.0

 36 37  0  0  0  0  0  0  0  0999 V2000
   -0.3712    0.4448   -1.1761 O   0  0  0  0  0  0  0  0  0  0  0  0
   -0.5757    0.5655    0.0258 C   0  0  0  0  0  0  0  0  0  0  0  0
   -1.8151    0.6809    0.6357 N   0  0  0  0  0  0  0  0  0  0  0  0
    0.5563    0.6525    1.0430 C   0  0  0  0  0  0  0  0  0  0  0  0
   -3.0783    0.6321    0.0056 C   0  0  0  0  0  0  0  0  0  0  0  0
    1.9297    0.2544    0.4794 C   0  0  0  0  0  0  0  0  0  0  0  0
   -4.2052    1.0007    0.7395 C   0  0  0  0  0  0  0  0  0  0  0  0
   -3.2873    0.2073   -1.3069 C   0  0  0  0  0  0  0  0  0  0  0  0
    3.0434    0.7000    1.4419 C   0  0  0  0  0  0  0  0  0  0  0  0
    2.0158   -1.2623    0.2334 C   0  0  0  0  0  0  0  0  0  0  0  0
   -5.4724    0.9763    0.2686 N   0  0  0  0  0  0  0  0  0  0  0  0
   -4.5741    0.1886   -1.8522 C   0  0  0  0  0  0  0  0  0  0  0  0
    4.4252    0.2825    0.9443 C   0  0  0  0  0  0  0  0  0  0  0  0
    3.3987   -1.6772   -0.2645 C   0  0  0  0  0  0  0  0  0  0  0  0
   -5.6207    0.5637   -1.0120 C   0  0  0  0  0  0  0  0  0  0  0  0
   -4.7902   -0.2763   -3.1391 N   0  0  0  0  0  0  0  0  0  0  0  0
    4.5001   -1.2182    0.6850 C   0  0  0  0  0  0  0  0  0  0  0  0
   -1.8196    0.8543    1.6335 H   0  0  0  0  0  0  0  0  0  0  0  0
    0.5852    1.6945    1.3864 H   0  0  0  0  0  0  0  0  0  0  0  0
    0.3087    0.0286    1.9108 H   0  0  0  0  0  0  0  0  0  0  0  0
    2.0866    0.7687   -0.4785 H   0  0  0  0  0  0  0  0  0  0  0  0
   -4.1244    1.3391    1.7684 H   0  0  0  0  0  0  0  0  0  0  0  0
   -2.4586   -0.1222   -1.9244 H   0  0  0  0  0  0  0  0  0  0  0  0
    2.8715    0.2679    2.4361 H   0  0  0  0  0  0  0  0  0  0  0  0
    3.0201    1.7899    1.5609 H   0  0  0  0  0  0  0  0  0  0  0  0
    1.2664   -1.5747   -0.5023 H   0  0  0  0  0  0  0  0  0  0  0  0
    1.7913   -1.8031    1.1619 H   0  0  0  0  0  0  0  0  0  0  0  0
    5.1837    0.5671    1.6823 H   0  0  0  0  0  0  0  0  0  0  0  0
    4.6593    0.8252    0.0202 H   0  0  0  0  0  0  0  0  0  0  0  0
    3.5715   -1.2490   -1.2595 H   0  0  0  0  0  0  0  0  0  0  0  0
    3.4385   -2.7668   -0.3746 H   0  0  0  0  0  0  0  0  0  0  0  0
   -6.6489    0.5398   -1.3612 H   0  0  0  0  0  0  0  0  0  0  0  0
   -5.7028   -0.1960   -3.5668 H   0  0  0  0  0  0  0  0  0  0  0  0
   -3.9977   -0.4486   -3.7453 H   0  0  0  0  0  0  0  0  0  0  0  0
    4.4106   -1.7578    1.6359 H   0  0  0  0  0  0  0  0  0  0  0  0
    5.4797   -1.4720    0.2647 H   0  0  0  0  0  0  0  0  0  0  0  0
  1  2  2  0  0  0  0
  2  3  1  0  0  0  0
  2  4  1  0  0  0  0
  3  5  1  0  0  0  0
  4  6  1  0  0  0  0
  5  7  2  0  0  0  0
  5  8  1  0  0  0  0
  6  9  1  0  0  0  0
  6 10  1  0  0  0  0
  7 11  1  0  0  0  0
  8 12  2  0  0  0  0
  9 13  1  0  0  0  0
 10 14  1  0  0  0  0
 11 15  2  0  0  0  0
 12 16  1  0  0  0  0
 13 17  1  0  0  0  0
 12 15  1  0  0  0  0
 14 17  1  0  0  0  0
  3 18  1  0  0  0  0
  4 19  1  0  0  0  0
  4 20  1  0  0  0  0
  6 21  1  0  0  0  0
  7 22  1  0  0  0  0
  8 23  1  0  0  0  0
  9 24  1  0  0  0  0
  9 25  1  0  0  0  0
 10 26  1  0  0  0  0
 10 27  1  0  0  0  0
 13 28  1  0  0  0  0
 13 29  1  0  0  0  0
 14 30  1  0  0  0  0
 14 31  1  0  0  0  0
 15 32  1  0  0  0  0
 16 33  1  0  0  0  0
 16 34  1  0  0  0  0
 17 35  1  0  0  0  0
 17 36  1  0  0  0  0
M  END
>  <ID>
2

>  <Stereo Isomer>
1

>  <Energy>
34.734

>  <Error>


$$$$

Actelion Java MolfileCreator 1.0

 34 35  0  0  0  0  0  0  0  0999 V2000
   -0.3484    0.4861   -1.4782 O   0  0  0  0  0  0  0  0  0  0  0  0
   -0.5087   -0.4844   -0.7482 C   0  0  0  0  0  0  0  0  0  0  0  0
   -1.5657   -1.3797   -0.7980 N   0  0  0  0  0  0  0  0  0  0  0  0
    0.4975   -0.8707    0.3301 C   0  0  0  0  0  0  0  0  0  0  0  0
   -2.6792   -1.3366   -1.6646 C   0  0  0  0  0  0  0  0  0  0  0  0
    1.5450    0.2160    0.6210 C   0  0  0  0  0  0  0  0  0  0  0  0
   -3.5826   -2.4003   -1.6468 C   0  0  0  0  0  0  0  0  0  0  0  0
   -2.9586   -0.2911   -2.5403 C   0  0  0  0  0  0  0  0  0  0  0  0
    2.7058   -0.3765    1.4376 C   0  0  0  0  0  0  0  0  0  0  0  0
    0.9226    1.4075    1.3701 C   0  0  0  0  0  0  0  0  0  0  0  0
   -4.6946   -2.4857   -2.4162 N   0  0  0  0  0  0  0  0  0  0  0  0
   -4.0950   -0.3477   -3.3488 C   0  0  0  0  0  0  0  0  0  0  0  0
    3.7495    0.6804    1.7910 C   0  0  0  0  0  0  0  0  0  0  0  0
    1.9685    2.4633    1.7220 C   0  0  0  0  0  0  0  0  0  0  0  0
   -4.9234   -1.4530   -3.2530 C   0  0  0  0  0  0  0  0  0  0  0  0
    3.1251    1.8671    2.5170 C   0  0  0  0  0  0  0  0  0  0  0  0
   -1.5296   -2.1635   -0.1577 H   0  0  0  0  0  0  0  0  0  0  0  0
   -0.0423   -1.1306    1.2491 H   0  0  0  0  0  0  0  0  0  0  0  0
    0.9977   -1.7811   -0.0245 H   0  0  0  0  0  0  0  0  0  0  0  0
    1.9548    0.5823   -0.3301 H   0  0  0  0  0  0  0  0  0  0  0  0
   -3.4377   -3.2534   -0.9902 H   0  0  0  0  0  0  0  0  0  0  0  0
   -2.3187    0.5818   -2.6167 H   0  0  0  0  0  0  0  0  0  0  0  0
    3.1890   -1.1810    0.8704 H   0  0  0  0  0  0  0  0  0  0  0  0
    2.3198   -0.8264    2.3614 H   0  0  0  0  0  0  0  0  0  0  0  0
    0.1384    1.8744    0.7640 H   0  0  0  0  0  0  0  0  0  0  0  0
    0.4419    1.0569    2.2926 H   0  0  0  0  0  0  0  0  0  0  0  0
   -4.3249    0.4583   -4.0371 H   0  0  0  0  0  0  0  0  0  0  0  0
    4.5286    0.2331    2.4186 H   0  0  0  0  0  0  0  0  0  0  0  0
    4.2396    1.0297    0.8739 H   0  0  0  0  0  0  0  0  0  0  0  0
    2.3533    2.9166    0.8002 H   0  0  0  0  0  0  0  0  0  0  0  0
    1.4997    3.2668    2.3012 H   0  0  0  0  0  0  0  0  0  0  0  0
   -5.8177   -1.5375   -3.8637 H   0  0  0  0  0  0  0  0  0  0  0  0
    3.8869    2.6348    2.6931 H   0  0  0  0  0  0  0  0  0  0  0  0
    2.7634    1.5438    3.5009 H   0  0  0  0  0  0  0  0  0  0  0  0
  1  2  2  0  0  0  0
  2  3  1  0  0  0  0
  2  4  1  0  0  0  0
  3  5  1  0  0  0  0
  4  6  1  0  0  0  0
  5  7  2  0  0  0  0
  5  8  1  0  0  0  0
  6  9  1  0  0  0  0
  6 10  1  0  0  0  0
  7 11  1  0  0  0  0
  8 12  2  0  0  0  0
  9 13  1  0  0  0  0
 10 14  1  0  0  0  0
 11 15  2  0  0  0  0
 13 16  1  0  0  0  0
 12 15  1  0  0  0  0
 14 16  1  0  0  0  0
  3 17  1  0  0  0  0
  4 18  1  0  0  0  0
  4 19  1  0  0  0  0
  6 20  1  0  0  0  0
  7 21  1  0  0  0  0
  8 22  1  0  0  0  0
  9 23  1  0  0  0  0
  9 24  1  0  0  0  0
 10 25  1  0  0  0  0
 10 26  1  0  0  0  0
 12 27  1  0  0  0  0
 13 28  1  0  0  0  0
 13 29  1  0  0  0  0
 14 30  1  0  0  0  0
 14 31  1  0  0  0  0
 15 32  1  0  0  0  0
 16 33  1  0  0  0  0
 16 34  1  0  0  0  0
M  END
>  <ID>
1

>  <Stereo Isomer>
1

>  <Energy>
17.708

>  <Error>


$$$$

Actelion Java MolfileCreator 1.0

 40 42  0  0  0  0  0  0  0  0999 V2000
   -0.2246    1.3060    0.3303 O   0  0  0  0  0  0  0  0  0  0  0  0
   -0.2087    0.2576   -0.3041 C   0  0  0  0  0  0  0  0  0  0  0  0
    0.8919   -0.3313   -0.8987 N   0  0  0  0  0  0  0  0  0  0  0  0
   -1.4718   -0.5758   -0.4529 C   0  0  0  0  0  0  0  0  0  0  0  0
    2.1845    0.1514   -1.0257 C   0  0  0  0  0  0  0  0  0  0  0  0
   -1.5167   -1.7574    0.5345 C   0  0  0  0  0  0  0  0  0  0  0  0
    2.5648    1.5775   -1.0790 C   0  0  0  0  0  0  0  0  0  0  0  0
    3.1839   -0.7609   -1.1050 C   0  0  0  0  0  0  0  0  0  0  0  0
   -1.6523   -1.3065    2.0001 C   0  0  0  0  0  0  0  0  0  0  0  0
   -2.6549   -2.7292    0.1779 C   0  0  0  0  0  0  0  0  0  0  0  0
    3.9606    1.8323   -0.9957 N   0  0  0  0  0  0  0  0  0  0  0  0
    1.7325    2.6227   -1.3104 C   0  0  0  0  0  0  0  0  0  0  0  0
    4.5368   -0.4980   -1.1489 N   0  0  0  0  0  0  0  0  0  0  0  0
   -3.0341   -0.7446    2.3299 C   0  0  0  0  0  0  0  0  0  0  0  0
   -4.0395   -2.1672    0.4961 C   0  0  0  0  0  0  0  0  0  0  0  0
    4.4244    3.1374   -1.0229 N   0  0  0  0  0  0  0  0  0  0  0  0
    4.8347    0.7627   -1.0693 C   0  0  0  0  0  0  0  0  0  0  0  0
    2.2481    3.9875   -1.3712 C   0  0  0  0  0  0  0  0  0  0  0  0
   -4.1441   -1.7201    1.9509 C   0  0  0  0  0  0  0  0  0  0  0  0
    3.5660    4.1929   -1.2174 C   0  0  0  0  0  0  0  0  0  0  0  0
    0.7738   -1.3083   -1.1396 H   0  0  0  0  0  0  0  0  0  0  0  0
   -1.5076   -0.9491   -1.4846 H   0  0  0  0  0  0  0  0  0  0  0  0
   -2.3335    0.0903   -0.3377 H   0  0  0  0  0  0  0  0  0  0  0  0
   -0.5723   -2.3105    0.4482 H   0  0  0  0  0  0  0  0  0  0  0  0
    2.9577   -1.8238   -1.0801 H   0  0  0  0  0  0  0  0  0  0  0  0
   -1.4657   -2.1724    2.6492 H   0  0  0  0  0  0  0  0  0  0  0  0
   -0.8844   -0.5673    2.2531 H   0  0  0  0  0  0  0  0  0  0  0  0
   -2.6034   -3.0029   -0.8826 H   0  0  0  0  0  0  0  0  0  0  0  0
   -2.5149   -3.6592    0.7443 H   0  0  0  0  0  0  0  0  0  0  0  0
    0.6695    2.5079   -1.4724 H   0  0  0  0  0  0  0  0  0  0  0  0
   -3.1863    0.2075    1.8088 H   0  0  0  0  0  0  0  0  0  0  0  0
   -3.0921   -0.5261    3.4024 H   0  0  0  0  0  0  0  0  0  0  0  0
   -4.7988   -2.9313    0.2939 H   0  0  0  0  0  0  0  0  0  0  0  0
   -4.2612   -1.3218   -0.1656 H   0  0  0  0  0  0  0  0  0  0  0  0
    5.3856    3.3360   -0.7631 H   0  0  0  0  0  0  0  0  0  0  0  0
    5.8946    1.0667   -1.0796 H   0  0  0  0  0  0  0  0  0  0  0  0
    1.5507    4.8035   -1.5174 H   0  0  0  0  0  0  0  0  0  0  0  0
   -4.0912   -2.5998    2.6043 H   0  0  0  0  0  0  0  0  0  0  0  0
   -5.1206   -1.2540    2.1248 H   0  0  0  0  0  0  0  0  0  0  0  0
    4.0188    5.1778   -1.2246 H   0  0  0  0  0  0  0  0  0  0  0  0
  1  2  2  0  0  0  0
  2  3  1  0  0  0  0
  2  4  1  0  0  0  0
  3  5  1  0  0  0  0
  4  6  1  0  0  0  0
  5  7  1  0  0  0  0
  5  8  2  0  0  0  0
  6  9  1  0  0  0  0
  6 10  1  0  0  0  0
  7 11  1  0  0  0  0
  7 12  2  0  0  0  0
  8 13  1  0  0  0  0
  9 14  1  0  0  0  0
 10 15  1  0  0  0  0
 11 16  1  0  0  0  0
 11 17  1  0  0  0  0
 12 18  1  0  0  0  0
 14 19  1  0  0  0  0
 16 20  1  0  0  0  0
 13 17  2  0  0  0  0
 15 19  1  0  0  0  0
 18 20  2  0  0  0  0
  3 21  1  0  0  0  0
  4 22  1  0  0  0  0
  4 23  1  0  0  0  0
  6 24  1  0  0  0  0
  8 25  1  0  0  0  0
  9 26  1  0  0  0  0
  9 27  1  0  0  0  0
 10 28  1  0  0  0  0
 10 29  1  0  0  0  0
 12 30  1  0  0  0  0
 14 31  1  0  0  0  0
 14 32  1  0  0  0  0
 15 33  1  0  0  0  0
 15 34  1  0  0  0  0
 16 35  1  0  0  0  0
 17 36  1  0  0  0  0
 18 37  1  0  0  0  0
 19 38  1  0  0  0  0
 19 39  1  0  0  0  0
 20 40  1  0  0  0  0
M  END
>  <ID>
5

>  <Stereo Isomer>
1

>  <Energy>
66.746

>  <Error>


$$$$
