@<TRIPOS>MOLECULE
Cpptraj Generated mol2 file.
   33    35     1     0     0
SMALL
USER_CHARGES


@<TRIPOS>ATOM
      1 O1          8.7481    1.0461   20.7436 o          1 S28     -0.606100
      2 C1          8.2937    0.0253   21.3158 c          1 S28      0.758100
      3 N1          9.0393   -0.6976   22.2440 ns         1 S28     -0.458100
      4 C2         10.3418   -0.2167   22.5833 ca         1 S28      0.056600
      5 C3         10.4543    0.9328   23.3622 ca         1 S28     -0.155500
      6 C4         11.7301    1.4086   23.6753 ca         1 S28     -0.108500
      7 C5         12.8477    0.7407   23.2095 ca         1 S28     -0.149000
      8 C6         12.7224   -0.4143   22.4441 ca         1 S28     -0.108500
      9 C7         11.4571   -0.9018   22.1233 ca         1 S28     -0.155500
     10 N2          7.0000   -0.4274   21.0469 ns         1 S28     -0.442100
     11 C8          6.2849    0.1505   19.9718 cc         1 S28     -0.117700
     12 C9          5.0949    0.9375   20.2580 cc         1 S28      0.061700
     13 N5          4.3831    1.3918   19.0941 na         1 S28     -0.264200
     14 C11         5.0208    1.3195   17.8441 cc         1 S28      0.576400
     15 N3          6.0782    0.5721   17.5981 nd         1 S28     -0.718000
     16 C12         6.7196   -0.0191   18.6910 cd         1 S28      0.431200
     17 H1          8.7622   -1.6258   22.5536 hn         1 S28      0.306500
     18 H3          9.5670    1.4639   23.7302 ha         1 S28      0.148500
     19 H4         11.8268    2.3178   24.2783 ha         1 S28      0.134000
     20 H5         13.8473    1.1419   23.4073 ha         1 S28      0.134000
     21 H6         13.6090   -0.9354   22.0760 ha         1 S28      0.134000
     22 H7         11.3561   -1.8104   21.5119 ha         1 S28      0.148500
     23 H2          6.5095   -1.0910   21.6416 hn         1 S28      0.308500
     24 N4          3.2776    2.3082   19.2510 na         1 S28     -0.107400
     25 H11         4.5542    1.8482   16.9913 h5         1 S28      0.063100
     26 H12         7.6075   -0.6068   18.4186 h4         1 S28      0.061100
     27 HN4         3.3427    3.1131   18.5916 hn         1 S28      0.196700
     28 C15         4.6192    1.2121   21.4953 cd         1 S28     -0.277000
     29 H15         5.0501    0.7625   22.3968 ha         1 S28      0.139000
     30 C14         3.5521    2.1617   21.6660 cd         1 S28     -0.103000
     31 H14         3.2229    2.4155   22.6814 ha         1 S28      0.145000
     32 C13         3.0253    2.7620   20.5822 cc         1 S28     -0.200300
     33 H13         2.3010    3.5900   20.6341 h4         1 S28      0.167000
@<TRIPOS>BOND
    1    30    32 1
    2    28    30 1
    3    24    32 1
    4    15    16 1
    5    14    15 1
    6    13    14 1
    7    13    24 1
    8    12    13 1
    9    12    28 1
   10    11    12 1
   11    11    16 1
   12    10    11 1
   13     8     9 1
   14     7     8 1
   15     6     7 1
   16     5     6 1
   17     4     5 1
   18     4     9 1
   19     3     4 1
   20     2     3 1
   21     2    10 1
   22     1     2 1
   23    32    33 1
   24    30    31 1
   25    28    29 1
   26    24    27 1
   27    16    26 1
   28    14    25 1
   29    10    23 1
   30     9    22 1
   31     8    21 1
   32     7    20 1
   33     6    19 1
   34     5    18 1
   35     3    17 1
@<TRIPOS>SUBSTRUCTURE
      1 S28               1 ****               0 ****  **** 
