@<TRIPOS>MOLECULE
S35
   33    35     1     0     1 
SMALL
USER_CHARGES
@<TRIPOS>ATOM
  1 O1      9.098000    0.717000   20.863000 o     1 S35    -0.6021 ****
  2 C1      8.544000   -0.200000   21.373000 c     1 S35     0.7711 ****
  3 N1      9.181000   -0.926000   22.445000 ns    1 S35    -0.4571 ****
  4 C2     10.466000   -0.447000   22.851000 ca    1 S35     0.0566 ****
  5 C3     10.500000    0.387000   23.949000 ca    1 S35    -0.1555 ****
  6 C4     11.704000    0.900000   24.365000 ca    1 S35    -0.1080 ****
  7 C5     12.865000    0.584000   23.673000 ca    1 S35    -0.1480 ****
  8 C6     12.823000   -0.250000   22.569000 ca    1 S35    -0.1080 ****
  9 C7     11.612000   -0.763000   22.147000 ca    1 S35    -0.1555 ****
 10 N2      7.237000   -0.626000   20.941000 ns    1 S35    -0.4831 ****
 11 C8      6.559000    0.058000   19.874000 cc    1 S35     0.0153 ****
 12 N6      5.353000    0.683000   20.152000 na    1 S35    -0.2279 ****
 13 C10     4.726000    1.339000   19.105000 cc    1 S35     0.4578 ****
 14 C11     5.321000    1.305000   17.849000 cd    1 S35    -0.2396 ****
 15 N3      6.472000    0.710000   17.644000 na    1 S35    -0.2031 ****
 16 C12     7.103000    0.084000   18.602000 cd    1 S35    -0.0903 ****
 17 H1      8.745000   -1.725000   22.883000 hn    1 S35     0.3075 ****
 18 H3      9.590000    0.634000   24.476000 ha    1 S35     0.1485 ****
 19 H4     11.747000    1.548000   25.228000 ha    1 S35     0.1350 ****
 20 H5     13.810000    0.993000   23.999000 ha    1 S35     0.1350 ****
 21 H6     13.732000   -0.498000   22.041000 ha    1 S35     0.1350 ****
 22 H7     11.562000   -1.403000   21.278000 ha    1 S35     0.1485 ****
 23 H2      6.793000   -1.413000   21.392000 hn    1 S35     0.3135 ****
 24 H11     4.822000    1.782000   17.019000 h4    1 S35     0.1780 ****
 25 H12     8.043000   -0.410000   18.402000 h4    1 S35     0.1740 ****
 26 C15     4.792000    0.652000   21.437000 cd    1 S35     0.0377 ****
 27 H15     5.301000    0.134000   22.236000 h4    1 S35     0.1560 ****
 28 C14     3.570000    1.295000   21.684000 cc    1 S35    -0.3993 ****
 29 C13     2.909000    1.968000   20.647000 cc    1 S35     0.4712 ****
 30 H14     3.139000    1.272000   22.674000 ha    1 S35     0.1540 ****
 31 N4      3.470000    1.999000   19.362000 nc    1 S35    -0.6800 ****
 32 H13     1.969000    2.463000   20.837000 h4    1 S35     0.0231 ****
 33 H31     6.881000    0.736000   16.721000 hn    1 S35     0.2407 ****
@<TRIPOS>BOND
    1     1     2 1
    2     2     3 1
    3     2    10 1
    4     3     4 1
    5     3    17 1
    6     4     5 1
    7     4     9 1
    8     5     6 1
    9     5    18 1
   10     6     7 1
   11     6    19 1
   12     7     8 1
   13     7    20 1
   14     8     9 1
   15     8    21 1
   16     9    22 1
   17    10    11 1
   18    10    23 1
   19    11    12 1
   20    11    16 1
   21    12    13 1
   22    12    26 1
   23    13    14 1
   24    13    31 1
   25    14    15 1
   26    14    24 1
   27    15    16 1
   28    15    33 1
   29    16    25 1
   30    26    27 1
   31    26    28 1
   32    28    29 1
   33    28    30 1
   34    29    31 1
   35    29    32 1
@<TRIPOS>SUBSTRUCTURE
      1  S35              1 ****               0 ****  **** 
