@<TRIPOS>MOLECULE
Cpptraj Generated mol2 file.
   40    42     1     0     0
SMALL
USER_CHARGES


@<TRIPOS>ATOM
      1 O1          9.2749    1.2266   20.9676 o          1 S40     -0.588100
      2 C1          8.7455    0.4496   21.7718 c          1 S40      0.661100
      3 C2          9.3615    0.0316   23.0904 c3         1 S40     -0.152400
      4 C3         10.8897    0.0219   23.0025 c3         1 S40     -0.061700
      5 C4         11.3615   -1.0431   22.0083 c3         1 S40     -0.075900
      6 C5         12.5558   -1.8433   22.5132 c3         1 S40     -0.074900
      7 C6         13.5879   -0.9723   23.2100 c3         1 S40     -0.077400
      8 C7         12.9907   -0.1035   24.3135 c3         1 S40     -0.074900
      9 C8         11.4762   -0.2320   24.3925 c3         1 S40     -0.075900
     10 N1          7.4687   -0.0395   21.5154 ns         1 S40     -0.459100
     11 C9          6.7586    0.3154   20.3470 cc         1 S40     -0.090700
     12 C10         5.4458    0.9380   20.5204 cc         1 S40      0.053700
     13 N4          4.7539    1.2449   19.3007 na         1 S40     -0.264200
     14 C12         5.4203    1.0806   18.0803 cc         1 S40      0.562400
     15 N2          6.5869    0.4840   17.9411 nd         1 S40     -0.708000
     16 C13         7.2674    0.1015   19.1028 cd         1 S40      0.389200
     17 H22         8.9935   -0.9622   23.4368 hc         1 S40      0.073700
     18 H23         9.0069    0.7473   23.8674 hc         1 S40      0.073700
     19 H3         11.2378    1.0303   22.6573 hc         1 S40      0.066700
     20 H42        10.5470   -1.7511   21.7412 hc         1 S40      0.039950
     21 H43        11.5920   -0.5539   21.0427 hc         1 S40      0.039950
     22 H52        13.0360   -2.3714   21.6616 hc         1 S40      0.041700
     23 H53        12.2168   -2.6523   23.1967 hc         1 S40      0.041700
     24 H62        14.3860   -1.6211   23.6272 hc         1 S40      0.042700
     25 H63        14.1120   -0.3404   22.4664 hc         1 S40      0.042700
     26 H72        13.4521   -0.3610   25.2890 hc         1 S40      0.041700
     27 H73        13.2639    0.9612   24.1457 hc         1 S40      0.041700
     28 H82        11.0641    0.4842   25.1324 hc         1 S40      0.039950
     29 H83        11.1698   -1.2263   24.7774 hc         1 S40      0.039950
     30 H1          7.0018   -0.6809   22.1600 hn         1 S40      0.322500
     31 C16         4.8425    1.1759   21.7087 cd         1 S40     -0.271000
     32 N3          3.5969    2.1047   19.3084 na         1 S40     -0.116400
     33 H12         4.9145    1.4213   17.1594 h5         1 S40      0.061100
     34 H13         8.2414   -0.3762   18.9158 h4         1 S40      0.065100
     35 C14         3.0925    2.4138   20.6147 cc         1 S40     -0.197300
     36 HN3         3.7933    2.9925   18.7938 hn         1 S40      0.201700
     37 C15         3.6003    1.9042   21.7490 cd         1 S40     -0.108000
     38 H14         2.2156    3.0807   20.5678 h4         1 S40      0.165000
     39 H15         3.1081    2.0584   22.7179 ha         1 S40      0.145000
     40 H16         5.2704    0.8512   22.6649 ha         1 S40      0.142000
@<TRIPOS>BOND
    1    35    37 1
    2    32    35 1
    3    31    37 1
    4    15    16 1
    5    14    15 1
    6    13    14 1
    7    13    32 1
    8    12    13 1
    9    12    31 1
   10    11    12 1
   11    11    16 1
   12    10    11 1
   13     8     9 1
   14     7     8 1
   15     6     7 1
   16     5     6 1
   17     4     5 1
   18     4     9 1
   19     3     4 1
   20     2     3 1
   21     2    10 1
   22     1     2 1
   23    37    39 1
   24    35    38 1
   25    32    36 1
   26    31    40 1
   27    16    34 1
   28    14    33 1
   29    10    30 1
   30     9    28 1
   31     9    29 1
   32     8    26 1
   33     8    27 1
   34     7    24 1
   35     7    25 1
   36     6    22 1
   37     6    23 1
   38     5    20 1
   39     5    21 1
   40     4    19 1
   41     3    17 1
   42     3    18 1
@<TRIPOS>SUBSTRUCTURE
      1 S40               1 ****               0 ****  **** 
