@<TRIPOS>MOLECULE
Cpptraj Generated mol2 file.
   33    35     1     0     0
SMALL
USER_CHARGES


@<TRIPOS>ATOM
      1 O1          8.8714    0.9569   20.8738 o          1 S35     -0.602100
      2 C1          8.4808   -0.1346   21.3153 c          1 S35      0.771100
      3 N1          9.2119   -0.8860   22.2286 ns         1 S35     -0.457100
      4 C2         10.4809   -0.3654   22.6243 ca         1 S35      0.056600
      5 C3         10.5207    0.7481   23.4631 ca         1 S35     -0.155500
      6 C4         11.7538    1.3079   23.7767 ca         1 S35     -0.108000
      7 C5         12.9178    0.7529   23.2631 ca         1 S35     -0.148000
      8 C6         12.8674   -0.3884   22.4708 ca         1 S35     -0.108000
      9 C7         11.6464   -0.9580   22.1380 ca         1 S35     -0.155500
     10 N2          7.2212   -0.6430   20.9380 ns         1 S35     -0.483100
     11 C8          6.5280    0.0616   19.9231 cc         1 S35      0.015300
     12 N6          5.3223    0.7257   20.3115 na         1 S35     -0.227900
     13 C10         4.5209    1.2662   19.2508 cc         1 S35      0.457800
     14 C11         4.9601    1.2346   17.9692 cd         1 S35     -0.239600
     15 N3          6.2636    0.7612   17.5920 na         1 S35     -0.203100
     16 C12         6.9622    0.0904   18.6450 cd         1 S35     -0.090300
     17 H1          8.9613   -1.8329   22.5053 hn         1 S35      0.307500
     18 H3          9.5998    1.1876   23.8627 ha         1 S35      0.148500
     19 H4         11.7938    2.1993   24.4130 ha         1 S35      0.135000
     20 H5         13.8799    1.2336   23.4515 ha         1 S35      0.135000
     21 H6         13.7906   -0.8297   22.0836 ha         1 S35      0.135000
     22 H7         11.6003   -1.8431   21.4947 ha         1 S35      0.148500
     23 H2          6.8763   -1.5621   21.2153 hn         1 S35      0.313500
     24 H11         4.3601    1.6086   17.1327 h4         1 S35      0.178000
     25 H12         7.8715   -0.4413   18.3252 h4         1 S35      0.174000
     26 C15         4.9808    0.9972   21.6402 cd         1 S35      0.037700
     27 H15         5.6776    0.6783   22.4352 h4         1 S35      0.156000
     28 C14         3.8033    1.6092   21.9182 cc         1 S35     -0.399300
     29 C13         2.9310    1.9623   20.8227 cc         1 S35      0.471200
     30 H14         3.5025    1.8493   22.9441 ha         1 S35      0.154000
     31 N4          3.2421    1.7961   19.5636 nc         1 S35     -0.680000
     32 H13         1.9261    2.3930   21.0213 h4         1 S35      0.023100
     33 H31         6.8283    1.5723   17.2765 hn         1 S35      0.240700
@<TRIPOS>BOND
    1    29    31 1
    2    28    29 1
    3    26    28 1
    4    15    16 1
    5    14    15 1
    6    13    14 1
    7    13    31 1
    8    12    13 1
    9    12    26 1
   10    11    12 1
   11    11    16 1
   12    10    11 1
   13     8     9 1
   14     7     8 1
   15     6     7 1
   16     5     6 1
   17     4     5 1
   18     4     9 1
   19     3     4 1
   20     2     3 1
   21     2    10 1
   22     1     2 1
   23    29    32 1
   24    28    30 1
   25    26    27 1
   26    16    25 1
   27    15    33 1
   28    14    24 1
   29    10    23 1
   30     9    22 1
   31     8    21 1
   32     7    20 1
   33     6    19 1
   34     5    18 1
   35     3    17 1
@<TRIPOS>SUBSTRUCTURE
      1 S35               1 ****               0 ****  **** 
