@<TRIPOS>MOLECULE
Cpptraj Generated mol2 file.
   40    42     1     0     0
SMALL
USER_CHARGES


@<TRIPOS>ATOM
      1 O1          9.3870    1.3815   21.0628 o          1 S47     -0.585100
      2 C1          8.8536    0.5526   21.8023 c          1 S47      0.669100
      3 C2          9.4253    0.0857   23.1207 c3         1 S47     -0.151400
      4 C3         10.9490   -0.0166   23.0289 c3         1 S47     -0.061700
      5 C4         11.3503   -1.1242   22.0495 c3         1 S47     -0.074900
      6 C5         12.5735   -1.9075   22.5157 c3         1 S47     -0.074900
      7 C6         13.6118   -1.0231   23.1833 c3         1 S47     -0.077400
      8 C7         13.0423   -0.2190   24.3492 c3         1 S47     -0.074900
      9 C8         11.5215   -0.2980   24.4186 c3         1 S47     -0.074900
     10 N1          7.6020    0.0356   21.4544 ns         1 S47     -0.490100
     11 C9          6.9348    0.5172   20.3028 cc         1 S47      0.024300
     12 N5          5.7685    1.3268   20.5225 na         1 S47     -0.229900
     13 C11         4.8473    1.4116   19.4272 cc         1 S47      0.442800
     14 C12         5.2649    1.0864   18.1765 cd         1 S47     -0.225600
     15 N2          6.6301    0.7347   17.8765 na         1 S47     -0.203100
     16 C13         7.3163    0.2270   19.0371 cd         1 S47     -0.106300
     17 H22         8.9903   -0.8822   23.4646 hc         1 S47      0.073200
     18 H23         9.1197    0.8244   23.8974 hc         1 S47      0.073200
     19 H3         11.3654    0.9619   22.6704 hc         1 S47      0.065700
     20 H42        10.5164   -1.8395   21.8678 hc         1 S47      0.039700
     21 H43        11.5208   -0.6799   21.0501 hc         1 S47      0.039700
     22 H52        13.0335   -2.4286   21.6497 hc         1 S47      0.042200
     23 H53        12.2694   -2.7212   23.2079 hc         1 S47      0.042200
     24 H62        14.4534   -1.6525   23.5359 hc         1 S47      0.043200
     25 H63        14.0653   -0.3463   22.4348 hc         1 S47      0.043200
     26 H72        13.4879   -0.5664   25.3027 hc         1 S47      0.042200
     27 H73        13.3542    0.8430   24.2603 hc         1 S47      0.042200
     28 H82        11.1339    0.4255   25.1660 hc         1 S47      0.039700
     29 H83        11.1803   -1.2858   24.7895 hc         1 S47      0.039700
     30 H1          7.1295   -0.6815   22.0074 hn         1 S47      0.320500
     31 C16         5.4006    1.8300   21.7765 cc         1 S47      0.022700
     32 N3          3.5066    1.8037   19.6837 nc         1 S47     -0.674000
     33 H12         4.6020    1.0728   17.3088 h4         1 S47      0.177000
     34 H13         8.1485   -0.4503   18.8066 h4         1 S47      0.180000
     35 C14         3.2075    2.2519   20.8783 cd         1 S47      0.465200
     36 C15         4.1558    2.3427   21.9564 cd         1 S47     -0.389300
     37 H14         2.1516    2.5526   21.0442 h4         1 S47      0.024100
     38 H15         3.8494    2.8026   22.9072 ha         1 S47      0.153000
     39 H16         6.1487    1.7990   22.5925 h4         1 S47      0.150000
     40 HN2         7.1259    1.5917   17.5573 hn         1 S47      0.238700
@<TRIPOS>BOND
    1    35    36 1
    2    32    35 1
    3    31    36 1
    4    15    16 1
    5    14    15 1
    6    13    14 1
    7    13    32 1
    8    12    13 1
    9    12    31 1
   10    11    12 1
   11    11    16 1
   12    10    11 1
   13     8     9 1
   14     7     8 1
   15     6     7 1
   16     5     6 1
   17     4     5 1
   18     4     9 1
   19     3     4 1
   20     2     3 1
   21     2    10 1
   22     1     2 1
   23    36    38 1
   24    35    37 1
   25    31    39 1
   26    16    34 1
   27    15    40 1
   28    14    33 1
   29    10    30 1
   30     9    28 1
   31     9    29 1
   32     8    26 1
   33     8    27 1
   34     7    24 1
   35     7    25 1
   36     6    22 1
   37     6    23 1
   38     5    20 1
   39     5    21 1
   40     4    19 1
   41     3    17 1
   42     3    18 1
@<TRIPOS>SUBSTRUCTURE
      1 S47               1 ****               0 ****  **** 
