
     RDKit          3D

 16 17  0  0  0  0  0  0  0  0999 V2000
    7.0200   -4.7860   21.7150 N   0  0  0  0  0  0  0  0  0  0  0  0
    7.4540   -2.4640   22.5110 C   0  0  0  0  0  0  0  0  0  0  0  0
    5.6380   -5.1560   19.9720 O   0  0  0  0  0  0  0  0  0  0  0  0
    7.3350   -3.9380   22.8790 C   0  0  1  0  0  0  0  0  0  0  0  0
    6.4660   -4.4360   20.5370 C   0  0  0  0  0  0  0  0  0  0  0  0
    6.8600   -3.2350   19.6840 C   0  0  0  0  0  0  0  0  0  0  0  0
    6.3520   -4.1400   24.0250 C   0  0  0  0  0  0  0  0  0  0  0  0
    5.0130   -4.3060   23.7590 C   0  0  0  0  0  0  0  0  0  0  0  0
    4.0650   -4.4790   24.7850 C   0  0  0  0  0  0  0  0  0  0  0  0
    4.4610   -4.4910   26.0800 C   0  0  0  0  0  0  0  0  0  0  0  0
    5.8210   -4.3240   26.4310 C   0  0  0  0  0  0  0  0  0  0  0  0
    6.2280   -4.3380   27.7860 C   0  0  0  0  0  0  0  0  0  0  0  0
    7.5320   -4.1830   28.1220 C   0  0  0  0  0  0  0  0  0  0  0  0
    8.5030   -3.9990   27.1280 C   0  0  0  0  0  0  0  0  0  0  0  0
    8.1470   -3.9790   25.8120 C   0  0  0  0  0  0  0  0  0  0  0  0
    6.7950   -4.1440   25.4010 C   0  0  0  0  0  0  0  0  0  0  0  0
  1  4  1  0
  1  5  1  0
  4  2  1  6
  4  7  1  0
  5  3  2  0
  5  6  1  0
  7  8  2  0
  7 16  1  0
  8  9  1  0
 16 15  2  0
 16 11  1  0
  9 10  2  0
 10 11  1  0
 11 12  2  0
 12 13  1  0
 13 14  2  0
 14 15  1  0
M  END
