
     RDKit          3D

 17 18  0  0  0  0  0  0  0  0999 V2000
    8.2590   -2.1100   23.1600 N   0  0  0  0  0  0  0  0  0  0  0  0
   11.0450    2.2690   24.6510 C   0  0  0  0  0  0  0  0  0  0  0  0
    5.6240   -4.1360   19.6880 O   0  0  0  0  0  0  0  0  0  0  0  0
   11.2840    0.8810   24.1290 C   0  0  0  0  0  0  0  0  0  0  0  0
    6.6180   -2.4790   20.8600 N   0  0  0  0  0  0  0  0  0  0  0  0
   12.4660    0.5490   23.4850 C   0  0  0  0  0  0  0  0  0  0  0  0
   12.6800   -0.7260   22.9910 C   0  0  0  0  0  0  0  0  0  0  0  0
   11.7070   -1.6960   23.1460 C   0  0  0  0  0  0  0  0  0  0  0  0
   10.5270   -1.4020   23.8070 C   0  0  0  0  0  0  0  0  0  0  0  0
    9.4420   -2.4360   23.9590 C   0  0  0  0  0  0  0  0  0  0  0  0
    7.4030   -3.2880   23.0080 C   0  0  0  0  0  0  0  0  0  0  0  0
    6.1900   -2.9690   22.1680 C   0  0  0  0  0  0  0  0  0  0  0  0
    7.4270   -1.2720   21.0040 C   0  0  0  0  0  0  0  0  0  0  0  0
    8.6420   -1.5790   21.8470 C   0  0  0  0  0  0  0  0  0  0  0  0
    6.3230   -3.1290   19.7110 C   0  0  0  0  0  0  0  0  0  0  0  0
    6.9420   -2.6190   18.4390 C   0  0  0  0  0  0  0  0  0  0  0  0
   10.3230   -0.1070   24.2730 C   0  0  0  0  0  0  0  0  0  0  0  0
  1 10  1  0
  1 11  1  0
  1 14  1  0
 10  9  1  0
 11 12  1  0
 14 13  1  0
  2  4  1  0
  4  6  2  0
  4 17  1  0
  3 15  2  0
 15  5  1  0
 15 16  1  0
  6  7  1  0
 17  9  2  0
  5 12  1  0
  5 13  1  0
  7  8  2  0
  8  9  1  0
M  END
