
     RDKit          3D

 16 17  0  0  0  0  0  0  0  0999 V2000
    6.8860   -2.9200   21.1210 N   0  0  0  0  0  0  0  0  0  0  0  0
    7.3660   -2.5400   18.7110 C   0  0  0  0  0  0  0  0  0  0  0  0
    5.8160   -4.1290   19.5720 O   0  0  0  0  0  0  0  0  0  0  0  0
    6.6380   -3.2590   19.8370 C   0  0  0  0  0  0  0  0  0  0  0  0
    7.8320   -2.7720   23.8070 N   0  0  0  0  0  0  0  0  0  0  0  0
    6.0740   -2.1470   25.0760 O   0  0  0  0  0  0  0  0  0  0  0  0
    6.2270   -3.6490   22.2090 C   0  0  0  0  0  0  0  0  0  0  0  0
    8.3590    0.0270   25.3190 O   0  0  0  0  0  0  0  0  0  0  0  0
    7.1990   -3.9970   23.3160 C   0  0  0  0  0  0  0  0  0  0  0  0
    8.5990   -2.1260   22.7400 C   0  0  0  0  0  0  0  0  0  0  0  0
    7.6980   -1.7790   21.5700 C   0  0  0  0  0  0  0  0  0  0  0  0
    7.2760   -2.0730   24.8290 C   0  0  0  0  0  0  0  0  0  0  0  0
    8.1150   -1.2700   25.6850 C   0  0  0  0  0  0  0  0  0  0  0  0
    8.7430   -1.5490   26.8490 C   0  0  0  0  0  0  0  0  0  0  0  0
    9.4280   -0.3760   27.2440 C   0  0  0  0  0  0  0  0  0  0  0  0
    9.1660    0.5650   26.2750 C   0  0  0  0  0  0  0  0  0  0  0  0
  1  4  1  0
  1  7  1  0
  1 11  1  0
  4  2  1  0
  4  3  2  0
  7  9  1  0
 11 10  1  0
  5  9  1  0
  5 10  1  0
  5 12  1  0
 12  6  2  0
 12 13  1  0
  8 13  1  0
  8 16  1  0
 13 14  2  0
 16 15  2  0
 14 15  1  0
M  END
