
     RDKit          3D

 20 21  0  0  0  0  0  0  0  0999 V2000
    5.6870   -5.2010   24.4390 N   0  0  0  0  0  0  0  0  0  0  0  0
    0.6010   -1.3600   26.1630 C   0  0  0  0  0  0  0  0  0  0  0  0
    4.6370   -6.7240   26.0790 O   0  0  0  0  0  0  0  0  0  0  0  0
    1.7000   -2.3710   26.1120 C   0  0  0  0  0  0  0  0  0  0  0  0
    6.3560   -4.4590   21.8560 N   0  0  0  0  0  0  0  0  0  0  0  0
    6.1260   -4.9010   26.8530 O   0  0  0  0  0  0  0  0  0  0  0  0
    2.9990   -2.0190   26.4000 C   0  0  0  0  0  0  0  0  0  0  0  0
    6.0070   -4.6380   19.6330 O   0  0  0  0  0  0  0  0  0  0  0  0
    4.0180   -2.9430   26.3560 C   0  0  0  0  0  0  0  0  0  0  0  0
    3.7460   -4.2680   26.0360 C   0  0  0  0  0  0  0  0  0  0  0  0
    2.4340   -4.6620   25.7120 C   0  0  0  0  0  0  0  0  0  0  0  0
    2.0030   -6.0520   25.3270 C   0  0  0  0  0  0  0  0  0  0  0  0
    1.4420   -3.6870   25.7740 C   0  0  0  0  0  0  0  0  0  0  0  0
    7.1000   -4.9130   24.1810 C   0  0  0  0  0  0  0  0  0  0  0  0
    7.1330   -3.9680   23.0090 C   0  0  0  0  0  0  0  0  0  0  0  0
    5.0590   -5.0890   22.1500 C   0  0  0  0  0  0  0  0  0  0  0  0
    5.1060   -5.9900   23.3510 C   0  0  0  0  0  0  0  0  0  0  0  0
    6.7020   -4.2530   20.5650 C   0  0  0  0  0  0  0  0  0  0  0  0
    7.9640   -3.4790   20.2940 C   0  0  0  0  0  0  0  0  0  0  0  0
    5.1160   -5.3830   25.9620 S   0  0  1  0  0  0  0  0  0  0  0  0
  1 14  1  0
  1 17  1  0
  1 20  1  0
 14 15  1  0
 17 16  1  0
 20  3  2  0
 20  6  2  0
 20 10  1  6
  2  4  1  0
  4  7  2  0
  4 13  1  0
  7  9  1  0
 13 11  2  0
  5 15  1  0
  5 16  1  0
  5 18  1  0
 18  8  2  0
 18 19  1  0
  9 10  2  0
 10 11  1  0
 11 12  1  0
M  END
