
     RDKit          3D

 17 18  0  0  0  0  0  0  0  0999 V2000
   24.7410  -14.5710   24.9850 C   0  0  0  0  0  0  0  0  0  0  0  0
   23.8630  -14.9030   26.1960 C   0  0  0  0  0  0  0  0  0  0  0  0
   23.6840  -14.0980   27.0460 O   0  0  0  0  0  0  0  0  0  0  0  0
   23.2020  -16.1830   26.3140 N   0  0  0  0  0  0  0  0  0  0  0  0
   23.3950  -17.2360   25.3400 C   0  0  0  0  0  0  0  0  0  0  0  0
   24.6500  -17.8170   25.3340 C   0  0  0  0  0  0  0  0  0  0  0  0
   24.9320  -18.8530   24.4730 C   0  0  0  0  0  0  0  0  0  0  0  0
   23.9680  -19.3070   23.5900 C   0  0  0  0  0  0  0  0  0  0  0  0
   24.3580  -20.3910   22.8000 O   0  0  0  0  0  0  0  0  0  0  0  0
   24.1760  -20.5260   21.4170 C   0  0  0  0  0  0  0  0  0  0  0  0
   24.8240  -19.7560   20.5550 N   0  0  0  0  0  0  0  0  0  0  0  0
   24.6730  -19.9620   19.2580 C   0  0  0  0  0  0  0  0  0  0  0  0
   23.8450  -20.9870   18.7970 C   0  0  0  0  0  0  0  0  0  0  0  0
   23.2020  -21.7870   19.7420 C   0  0  0  0  0  0  0  0  0  0  0  0
   23.4100  -21.5310   21.0170 N   0  0  0  0  0  0  0  0  0  0  0  0
   22.6930  -18.7530   23.6130 C   0  0  0  0  0  0  0  0  0  0  0  0
   22.4020  -17.7050   24.4850 C   0  0  0  0  0  0  0  0  0  0  0  0
  1  2  1  0
  2  3  2  0
  2  4  1  0
  4  5  1  0
  5  6  2  0
  5 17  1  0
  6  7  1  0
 17 16  2  0
  7  8  2  0
  8  9  1  0
  8 16  1  0
  9 10  1  0
 10 11  2  0
 10 15  1  0
 11 12  1  0
 15 14  2  0
 12 13  2  0
 13 14  1  0
M  END
