
     RDKit          3D

 15 16  0  0  0  0  0  0  0  0999 V2000
   23.7070   -8.0690    3.7110 N   0  0  0  0  0  0  0  0  0  0  0  0
   25.0900   -7.1330    5.5220 C   0  0  0  0  0  0  0  0  0  0  0  0
   23.6590   -7.2290    4.9410 C   0  0  2  0  0  0  0  0  0  0  0  0
   23.8010   -6.0100    2.4400 N   0  0  0  0  0  0  0  0  0  0  0  0
   22.6300   -7.7260    5.9770 C   0  0  0  0  0  0  0  0  0  0  0  0
   24.3470   -5.8860    0.0370 N   0  0  0  0  0  0  0  0  0  0  0  0
   24.2030   -9.4650    3.8880 C   0  0  0  0  0  0  0  0  0  0  0  0
   24.8000   -8.1460   -0.9500 N   0  0  0  0  0  0  0  0  0  0  0  0
   23.9370   -7.4000    2.4690 C   0  0  0  0  0  0  0  0  0  0  0  0
   24.8120   -9.4450   -0.5180 N   0  0  0  0  0  0  0  0  0  0  0  0
   24.0100   -5.3630    1.2410 C   0  0  0  0  0  0  0  0  0  0  0  0
   24.4770   -7.2720    0.0870 C   0  0  0  0  0  0  0  0  0  0  0  0
   25.1250   -7.7900   -2.3420 C   0  0  0  0  0  0  0  0  0  0  0  0
   24.5130   -9.4390    0.7910 C   0  0  0  0  0  0  0  0  0  0  0  0
   24.2850   -8.0930    1.2580 C   0  0  0  0  0  0  0  0  0  0  0  0
  1  3  1  0
  1  7  1  0
  1  9  1  0
  3  2  1  1
  3  5  1  0
  9  4  2  0
  9 15  1  0
  4 11  1  0
 11  6  2  0
  6 12  1  0
 12  8  1  0
 12 15  2  0
  8 10  1  0
  8 13  1  0
 10 14  2  0
 15 14  1  0
M  END
