
     RDKit          3D

 14 15  0  0  0  0  0  0  0  0999 V2000
    7.4700   -4.5770   21.2460 N   0  0  0  0  0  0  0  0  0  0  0  0
    7.0680   -3.0020   19.4230 C   0  0  0  0  0  0  0  0  0  0  0  0
    5.7050   -4.8740   19.8750 O   0  0  0  0  0  0  0  0  0  0  0  0
    6.6980   -4.2330   20.2250 C   0  0  0  0  0  0  0  0  0  0  0  0
    2.8560   -2.9920   25.2110 O   0  0  0  0  0  0  0  0  0  0  0  0
    6.9970   -5.4310   22.3210 C   0  0  0  0  0  0  0  0  0  0  0  0
    2.5480   -5.1850   24.5220 O   0  0  0  0  0  0  0  0  0  0  0  0
    5.9170   -4.7400   23.1110 C   0  0  0  0  0  0  0  0  0  0  0  0
    6.0840   -3.4280   23.5180 C   0  0  0  0  0  0  0  0  0  0  0  0
    5.1050   -2.7410   24.2410 C   0  0  0  0  0  0  0  0  0  0  0  0
    3.9640   -3.4310   24.5260 C   0  0  0  0  0  0  0  0  0  0  0  0
    1.9190   -4.0700   25.1550 C   0  0  0  0  0  0  0  0  0  0  0  0
    3.7820   -4.7320   24.1160 C   0  0  0  0  0  0  0  0  0  0  0  0
    4.7280   -5.4130   23.4050 C   0  0  0  0  0  0  0  0  0  0  0  0
  1  4  1  0
  1  6  1  0
  4  2  1  0
  4  3  2  0
  6  8  1  0
  5 11  1  0
  5 12  1  0
 11 10  2  0
 11 13  1  0
 12  7  1  0
  8  9  2  0
  8 14  1  0
  7 13  1  0
 13 14  2  0
  9 10  1  0
M  END
