
     RDKit          3D

 15 16  0  0  0  0  0  0  0  0999 V2000
    7.6390   -0.6460   -4.8360 C   0  0  0  0  0  0  0  0  0  0  0  0
    6.6820   -1.2900   -5.7490 N   0  0  0  0  0  0  0  0  0  0  0  0
    6.1290   -2.4790   -5.5540 C   0  0  0  0  0  0  0  0  0  0  0  0
    5.3120   -2.7110   -6.5990 C   0  0  0  0  0  0  0  0  0  0  0  0
    5.3990   -1.5930   -7.4410 C   0  0  0  0  0  0  0  0  0  0  0  0
    4.6470   -1.3660   -8.7740 C   0  0  0  0  0  0  0  0  0  0  0  0
    4.6570   -0.2810   -9.2380 O   0  0  0  0  0  0  0  0  0  0  0  0
    3.9090   -2.4580   -9.4400 N   0  0  0  0  0  0  0  0  0  0  0  0
    3.1880   -2.2100  -10.7160 C   0  0  0  0  0  0  0  0  0  0  0  0
    4.0690   -2.6150  -11.8580 C   0  0  2  0  0  0  0  0  0  0  0  0
    3.3450   -2.2640  -13.3060 C   0  0  0  0  0  0  0  0  0  0  0  0
    3.7950   -3.1230  -14.1560 C   0  0  0  0  0  0  0  0  0  0  0  0
    4.3080   -4.3560  -13.3190 C   0  0  0  0  0  0  0  0  0  0  0  0
    4.2590   -3.9060  -11.8370 O   0  0  0  0  0  0  0  0  0  0  0  0
    6.2220   -0.7530   -6.9050 N   0  0  0  0  0  0  0  0  0  0  0  0
  1  2  1  0
  2 15  1  0
  2  3  1  0
  3  4  2  0
 15  5  2  0
  4  5  1  0
  5  6  1  0
  6  7  2  0
  6  8  1  0
  8  9  1  0
 10  9  1  1
 10 11  1  0
 10 14  1  0
 11 12  1  0
 14 13  1  0
 12 13  1  0
M  END
