
     RDKit          3D

 20 21  0  0  0  0  0  0  0  0999 V2000
    5.5910   -5.1570   24.4390 N   0  0  0  0  0  0  0  0  0  0  0  0
    2.3950   -4.0680   25.7990 C   0  0  0  0  0  0  0  0  0  0  0  0
    4.3030   -6.2390   26.2280 O   0  0  0  0  0  0  0  0  0  0  0  0
    1.4160   -3.1050   25.7700 C   0  0  0  0  0  0  0  0  0  0  0  0
    6.4560   -5.0580   21.7710 N   0  0  0  0  0  0  0  0  0  0  0  0
    6.0410   -4.5740   26.7940 O   0  0  0  0  0  0  0  0  0  0  0  0
    1.7940   -1.7810   25.8510 C   0  0  0  0  0  0  0  0  0  0  0  0
    5.7200   -4.8320   19.6520 O   0  0  0  0  0  0  0  0  0  0  0  0
    3.1220   -1.4110   25.9620 C   0  0  0  0  0  0  0  0  0  0  0  0
    4.0810   -2.3960   25.9860 C   0  0  0  0  0  0  0  0  0  0  0  0
    3.7380   -3.7370   25.9060 C   0  0  0  0  0  0  0  0  0  0  0  0
    4.6260   -5.2830   23.3380 C   0  0  0  0  0  0  0  0  0  0  0  0
    5.3340   -5.9070   22.1680 C   0  0  0  0  0  0  0  0  0  0  0  0
    7.4190   -4.9090   22.8650 C   0  0  0  0  0  0  0  0  0  0  0  0
    6.7400   -4.3120   24.0720 C   0  0  0  0  0  0  0  0  0  0  0  0
    6.5040   -4.5070   20.5360 C   0  0  0  0  0  0  0  0  0  0  0  0
    7.5170   -3.4210   20.2740 C   0  0  0  0  0  0  0  0  0  0  0  0
    2.0260   -5.3660   25.7200 F   0  0  0  0  0  0  0  0  0  0  0  0
    5.3810   -2.0320   26.0890 F   0  0  0  0  0  0  0  0  0  0  0  0
    4.9710   -5.0060   25.9480 S   0  0  1  0  0  0  0  0  0  0  0  0
  1 12  1  0
  1 15  1  0
  1 20  1  0
 12 13  1  0
 15 14  1  0
 20  3  2  0
 20  6  2  0
 20 11  1  6
  2  4  2  0
  2 11  1  0
  2 18  1  0
  4  7  1  0
 11 10  2  0
  7  9  2  0
  5 13  1  0
  5 14  1  0
  5 16  1  0
 16  8  2  0
 16 17  1  0
  9 10  1  0
 10 19  1  0
M  END
