
     RDKit          3D

 11 11  0  0  0  0  0  0  0  0999 V2000
    9.3080    5.1830   22.9770 N   0  0  0  0  0  0  0  0  0  0  0  0
   12.4100    1.1440   23.1630 C   0  0  0  0  0  0  0  0  0  0  0  0
   10.1390    5.2580   25.2850 O   0  0  0  0  0  0  0  0  0  0  0  0
   11.1670    1.2110   23.7980 C   0  0  0  0  0  0  0  0  0  0  0  0
   11.5080    6.2050   23.4890 O   0  0  0  0  0  0  0  0  0  0  0  0
   10.6190    2.4830   24.0520 C   0  0  0  0  0  0  0  0  0  0  0  0
   11.2890    3.6710   23.6820 C   0  0  0  0  0  0  0  0  0  0  0  0
   12.5380    3.5400   23.0570 C   0  0  0  0  0  0  0  0  0  0  0  0
   13.1040    2.2930   22.7980 C   0  0  0  0  0  0  0  0  0  0  0  0
   13.2180   -0.6070   22.7190 Br  0  0  0  0  0  0  0  0  0  0  0  0
   10.6210    5.1940   23.9610 S   0  0  2  0  0  0  0  0  0  0  0  0
 11  1  1  6
 11  3  2  0
 11  5  2  0
 11  7  1  0
  2  4  2  0
  2  9  1  0
  2 10  1  0
  4  6  1  0
  9  8  2  0
  6  7  2  0
  7  8  1  0
M  END
