
     RDKit          3D

 16 17  0  0  0  0  0  0  0  0999 V2000
    6.7990   -2.5770   21.0240 N   0  0  0  0  0  0  0  0  0  0  0  0
    7.2170   -2.4500   18.5840 C   0  0  0  0  0  0  0  0  0  0  0  0
    5.6980   -3.9490   19.6310 O   0  0  0  0  0  0  0  0  0  0  0  0
    6.5030   -3.0380   19.7880 C   0  0  0  0  0  0  0  0  0  0  0  0
    8.4070   -2.6050   23.3980 N   0  0  0  0  0  0  0  0  0  0  0  0
    7.6670   -1.4470   21.3520 C   0  0  0  0  0  0  0  0  0  0  0  0
    8.8450   -1.9290   22.1710 C   0  0  0  0  0  0  0  0  0  0  0  0
    9.5700   -3.0660   24.1850 C   0  0  0  0  0  0  0  0  0  0  0  0
    9.2440   -4.1450   25.1750 C   0  0  0  0  0  0  0  0  0  0  0  0
    9.5580   -5.5000   25.0720 C   0  0  0  0  0  0  0  0  0  0  0  0
    9.2370   -6.2330   26.2380 C   0  0  0  0  0  0  0  0  0  0  0  0
    8.4450   -5.4640   27.1100 C   0  0  0  0  0  0  0  0  0  0  0  0
    7.5180   -3.7170   23.0410 C   0  0  0  0  0  0  0  0  0  0  0  0
    6.3300   -3.2370   22.2400 C   0  0  0  0  0  0  0  0  0  0  0  0
    7.5240   -6.0480   28.6320 Br  0  0  0  0  0  0  0  0  0  0  0  0
    8.3710   -3.8200   26.6380 S   0  0  0  0  0  0  0  0  0  0  0  0
  1  4  1  0
  1  6  1  0
  1 14  1  0
  4  2  1  0
  4  3  2  0
  6  7  1  0
 14 13  1  0
  5  7  1  0
  5  8  1  0
  5 13  1  0
  8  9  1  0
  9 10  2  0
  9 16  1  0
 10 11  1  0
 16 12  1  0
 11 12  2  0
 12 15  1  0
M  END
