
     RDKit          3D

 17 18  0  0  0  0  0  0  0  0999 V2000
    6.8400   -4.2570   21.4200 N   0  0  0  0  0  0  0  0  0  0  0  0
    6.9230   -3.0210   19.2920 C   0  0  0  0  0  0  0  0  0  0  0  0
    5.5540   -4.9060   19.6780 O   0  0  0  0  0  0  0  0  0  0  0  0
    6.3840   -4.1370   20.1500 C   0  0  0  0  0  0  0  0  0  0  0  0
    6.3730   -3.4390   26.7260 N   0  0  0  0  0  0  0  0  0  0  0  0
    4.7480   -2.7350   25.3300 O   0  0  0  0  0  0  0  0  0  0  0  0
    7.7590   -3.3480   22.1200 C   0  0  0  0  0  0  0  0  0  0  0  0
    7.0740   -2.7450   23.3300 C   0  0  0  0  0  0  0  0  0  0  0  0
    6.5410   -3.8480   24.2530 C   0  0  2  0  0  0  0  0  0  0  0  0
    5.6320   -4.7770   23.4650 C   0  0  0  0  0  0  0  0  0  0  0  0
    6.3720   -5.3490   22.2810 C   0  0  0  0  0  0  0  0  0  0  0  0
    5.8320   -3.2960   25.4700 C   0  0  0  0  0  0  0  0  0  0  0  0
    7.7680   -3.7900   27.0160 C   0  0  0  0  0  0  0  0  0  0  0  0
    7.8490   -5.0060   27.9110 C   0  0  0  0  0  0  0  0  0  0  0  0
    7.1280   -4.7330   29.2160 C   0  0  0  0  0  0  0  0  0  0  0  0
    5.6870   -4.3460   28.9290 C   0  0  0  0  0  0  0  0  0  0  0  0
    5.5910   -3.1910   27.9460 C   0  0  0  0  0  0  0  0  0  0  0  0
  1  4  1  0
  1  7  1  0
  1 11  1  0
  4  2  1  0
  4  3  2  0
  7  8  1  0
 11 10  1  0
  5 12  1  0
  5 13  1  0
  5 17  1  0
  9 12  1  1
 12  6  2  0
 13 14  1  0
 17 16  1  0
  8  9  1  0
  9 10  1  0
 14 15  1  0
 15 16  1  0
M  END
