
     RDKit          3D

 18 19  0  0  0  0  0  0  0  0999 V2000
    6.6140   -4.1540   21.3690 N   0  0  0  0  0  0  0  0  0  0  0  0
    6.8780   -2.9960   19.2100 C   0  0  0  0  0  0  0  0  0  0  0  0
    5.4850   -4.8740   19.5530 O   0  0  0  0  0  0  0  0  0  0  0  0
    6.2730   -4.0870   20.0600 C   0  0  0  0  0  0  0  0  0  0  0  0
    5.8760   -2.6920   25.2880 N   0  0  0  0  0  0  0  0  0  0  0  0
    7.7290   -2.7580   26.5740 O   0  0  0  0  0  0  0  0  0  0  0  0
    5.9590   -5.0790   22.3070 C   0  0  0  0  0  0  0  0  0  0  0  0
    5.3520   -4.3210   23.4830 C   0  0  0  0  0  0  0  0  0  0  0  0
    6.4120   -3.4600   24.1590 C   0  0  1  0  0  0  0  0  0  0  0  0
    7.0280   -2.5200   23.1320 C   0  0  0  0  0  0  0  0  0  0  0  0
    7.6470   -3.3270   22.0030 C   0  0  0  0  0  0  0  0  0  0  0  0
    6.6820   -2.1940   26.2560 C   0  0  0  0  0  0  0  0  0  0  0  0
    6.3010   -0.8940   26.8970 C   0  0  0  0  0  0  0  0  0  0  0  0
    6.9590   -0.5420   28.0720 C   0  0  0  0  0  0  0  0  0  0  0  0
    6.6650    0.6490   28.7160 C   0  0  0  0  0  0  0  0  0  0  0  0
    5.7200    1.5030   28.1940 C   0  0  0  0  0  0  0  0  0  0  0  0
    5.0670    1.1700   27.0280 C   0  0  0  0  0  0  0  0  0  0  0  0
    5.3540   -0.0190   26.3760 C   0  0  0  0  0  0  0  0  0  0  0  0
  1  4  1  0
  1  7  1  0
  1 11  1  0
  4  2  1  0
  4  3  2  0
  7  8  1  0
 11 10  1  0
  9  5  1  1
  5 12  1  0
  9  8  1  0
  9 10  1  0
 12  6  2  0
 12 13  1  0
 13 14  2  0
 13 18  1  0
 14 15  1  0
 18 17  2  0
 15 16  2  0
 16 17  1  0
M  END
