
     RDKit          3D

 13 13  0  0  0  0  0  0  0  0999 V2000
    6.3780   -4.9440   26.6060 C   0  0  0  0  0  0  0  0  0  0  0  0
    8.0390   -4.3510   26.1860 S   0  0  2  0  0  0  0  0  0  0  0  0
    9.0270   -5.4340   26.2040 O   0  0  0  0  0  0  0  0  0  0  0  0
    8.5820   -3.5030   27.2340 O   0  0  0  0  0  0  0  0  0  0  0  0
    8.0090   -3.5280   24.6940 N   0  0  0  0  0  0  0  0  0  0  0  0
    9.2640   -3.0210   24.2000 C   0  0  0  0  0  0  0  0  0  0  0  0
    9.1610   -1.7420   23.3800 C   0  0  0  0  0  0  0  0  0  0  0  0
   10.5550   -1.1370   23.4290 C   0  0  0  0  0  0  0  0  0  0  0  0
   10.8590   -0.0900   24.2910 C   0  0  0  0  0  0  0  0  0  0  0  0
   12.1480    0.4150   24.3170 C   0  0  0  0  0  0  0  0  0  0  0  0
   13.1300   -0.1380   23.5120 C   0  0  0  0  0  0  0  0  0  0  0  0
   12.8240   -1.1930   22.6610 C   0  0  0  0  0  0  0  0  0  0  0  0
   11.5360   -1.6880   22.6290 C   0  0  0  0  0  0  0  0  0  0  0  0
  2  1  1  1
  2  3  2  0
  2  4  2  0
  2  5  1  0
  5  6  1  0
  6  7  1  0
  7  8  1  0
  8  9  2  0
  8 13  1  0
  9 10  1  0
 13 12  2  0
 10 11  2  0
 11 12  1  0
M  END
