
     RDKit          3D

 15 16  0  0  0  0  0  0  0  0999 V2000
   25.9860  -10.3370    4.2340 C   0  0  0  0  0  0  0  0  0  0  0  0
   26.3360  -10.2540    5.7260 C   0  0  0  0  0  0  0  0  0  0  0  0
   27.2500  -11.0650    6.1150 N   0  0  0  0  0  0  0  0  0  0  0  0
   27.8440  -10.7420    7.3390 C   0  0  0  0  0  0  0  0  0  0  0  0
   27.6380  -11.7270    8.4770 C   0  0  0  0  0  0  0  0  0  0  0  0
   27.8320  -13.0130    8.0440 O   0  0  0  0  0  0  0  0  0  0  0  0
   26.9600  -13.3470    7.0190 C   0  0  0  0  0  0  0  0  0  0  0  0
   27.0590  -12.4180    5.8150 C   0  0  0  0  0  0  0  0  0  0  0  0
   24.2340  -10.7970    4.0640 S   0  0  0  0  0  0  0  0  0  0  0  0
   23.3210   -9.4340    4.8210 C   0  0  0  0  0  0  0  0  0  0  0  0
   23.5950   -8.1400    4.4190 C   0  0  0  0  0  0  0  0  0  0  0  0
   22.9190   -7.0880    4.9920 C   0  0  0  0  0  0  0  0  0  0  0  0
   21.9650   -7.3100    5.9720 C   0  0  0  0  0  0  0  0  0  0  0  0
   21.6970   -8.6040    6.3770 C   0  0  0  0  0  0  0  0  0  0  0  0
   22.3790   -9.6710    5.8030 C   0  0  0  0  0  0  0  0  0  0  0  0
  1  2  1  0
  1  9  1  0
  2  3  1  0
  9 10  1  0
  3  4  1  0
  3  8  1  0
  4  5  1  0
  8  7  1  0
  5  6  1  0
  6  7  1  0
 10 11  2  0
 10 15  1  0
 11 12  1  0
 15 14  2  0
 12 13  2  0
 13 14  1  0
M  END
