
     RDKit          3D

 15 16  0  0  0  0  0  0  0  0999 V2000
   21.7130   21.4100    4.6210 O   0  0  0  0  0  0  0  0  0  0  0  0
   21.8340   20.2210    3.9580 C   0  0  0  0  0  0  0  0  0  0  0  0
   20.6160   19.3720    4.2050 C   0  0  1  0  0  0  0  0  0  0  0  0
   21.0260   17.8790    4.1970 C   0  0  0  0  0  0  0  0  0  0  0  0
   21.3690   17.3440    5.4840 N   0  0  0  0  0  0  0  0  0  0  0  0
   22.2400   16.3910    5.4590 C   0  0  0  0  0  0  0  0  0  0  0  0
   21.7470   15.1520    6.2000 C   0  0  0  0  0  0  0  0  0  0  0  0
   22.3710   13.9540    5.9150 C   0  0  0  0  0  0  0  0  0  0  0  0
   21.9740   12.7940    6.5470 C   0  0  0  0  0  0  0  0  0  0  0  0
   20.9540   12.8210    7.4790 C   0  0  0  0  0  0  0  0  0  0  0  0
   20.3370   13.9990    7.7730 C   0  0  0  0  0  0  0  0  0  0  0  0
   20.7330   15.1730    7.1300 C   0  0  0  0  0  0  0  0  0  0  0  0
   21.5940   18.2880    6.4950 C   0  0  0  0  0  0  0  0  0  0  0  0
   20.4300   19.2880    6.6200 C   0  0  0  0  0  0  0  0  0  0  0  0
   19.9520   19.8010    5.3820 O   0  0  0  0  0  0  0  0  0  0  0  0
  1  2  1  0
  3  2  1  1
  3  4  1  0
  3 15  1  0
  4  5  1  0
 15 14  1  0
  5  6  1  0
  5 13  1  0
  6  7  1  0
 13 14  1  0
  7  8  2  0
  7 12  1  0
  8  9  1  0
 12 11  2  0
  9 10  2  0
 10 11  1  0
M  END
