
     RDKit          3D

 19 21  0  0  0  0  0  0  0  0999 V2000
    6.0360   -4.2040   20.0210 O   0  0  0  0  0  0  0  0  0  0  0  0
    6.7660   -3.2240   20.0900 C   0  0  0  0  0  0  0  0  0  0  0  0
    7.2710   -2.6000   18.8200 C   0  0  0  0  0  0  0  0  0  0  0  0
    7.1320   -2.6720   21.2790 N   0  0  0  0  0  0  0  0  0  0  0  0
    6.4400   -3.0430   22.5140 C   0  0  0  0  0  0  0  0  0  0  0  0
    7.4210   -3.5770   23.5210 C   0  0  0  0  0  0  0  0  0  0  0  0
    6.9600   -4.4060   24.5450 C   0  0  0  0  0  0  0  0  0  0  0  0
    7.8330   -4.9130   25.4880 C   0  0  0  0  0  0  0  0  0  0  0  0
    9.1770   -4.6030   25.4210 C   0  0  0  0  0  0  0  0  0  0  0  0
    9.6490   -3.7820   24.4100 C   0  0  0  0  0  0  0  0  0  0  0  0
    8.7780   -3.2480   23.4500 C   0  0  0  0  0  0  0  0  0  0  0  0
    9.3260   -2.3580   22.3390 C   0  0  2  0  0  0  0  0  0  0  0  0
   10.2900   -1.2970   22.8290 C   0  0  0  0  0  0  0  0  0  0  0  0
   11.5740   -1.2050   22.3080 C   0  0  0  0  0  0  0  0  0  0  0  0
   12.4550   -0.2370   22.7590 C   0  0  0  0  0  0  0  0  0  0  0  0
   12.0650    0.6580   23.7290 C   0  0  0  0  0  0  0  0  0  0  0  0
   10.7960    0.5850   24.2540 C   0  0  0  0  0  0  0  0  0  0  0  0
    9.9130   -0.3860   23.8080 C   0  0  0  0  0  0  0  0  0  0  0  0
    8.2160   -1.7150   21.5120 C   0  0  0  0  0  0  0  0  0  0  0  0
  1  2  2  0
  2  3  1  0
  2  4  1  0
  4  5  1  0
  4 19  1  0
  5  6  1  0
 19 12  1  0
  6  7  1  0
  6 11  2  0
  7  8  2  0
 11 10  1  0
 11 12  1  0
  8  9  1  0
  9 10  2  0
 12 13  1  1
 13 14  2  0
 13 18  1  0
 14 15  1  0
 18 17  2  0
 15 16  2  0
 16 17  1  0
M  END
