
     RDKit          3D

 18 19  0  0  0  0  0  0  0  0999 V2000
    6.5650   -1.9710   24.1730 N   0  0  0  0  0  0  0  0  0  0  0  0
    1.1760   -2.6260   27.8300 C   0  0  0  0  0  0  0  0  0  0  0  0
    7.4140   -1.6850   26.2390 O   0  0  0  0  0  0  0  0  0  0  0  0
    2.5450   -2.4370   27.2370 C   0  0  0  0  0  0  0  0  0  0  0  0
    7.1080   -3.3500   21.7780 N   0  0  0  0  0  0  0  0  0  0  0  0
    6.2490   -3.7790   19.7320 O   0  0  0  0  0  0  0  0  0  0  0  0
    3.6200   -3.2060   27.6510 C   0  0  0  0  0  0  0  0  0  0  0  0
    4.8790   -3.0340   27.1040 C   0  0  0  0  0  0  0  0  0  0  0  0
    5.0900   -2.0760   26.1280 C   0  0  0  0  0  0  0  0  0  0  0  0
    4.0210   -1.3060   25.7040 C   0  0  0  0  0  0  0  0  0  0  0  0
    2.7650   -1.4890   26.2550 C   0  0  0  0  0  0  0  0  0  0  0  0
    6.4480   -1.8860   25.5110 C   0  0  0  0  0  0  0  0  0  0  0  0
    7.8140   -1.7190   23.4530 C   0  0  0  0  0  0  0  0  0  0  0  0
    8.2080   -2.9430   22.6570 C   0  0  0  0  0  0  0  0  0  0  0  0
    5.8870   -3.6320   22.5280 C   0  0  0  0  0  0  0  0  0  0  0  0
    5.4790   -2.3880   23.2840 C   0  0  0  0  0  0  0  0  0  0  0  0
    7.1790   -3.3970   20.4310 C   0  0  0  0  0  0  0  0  0  0  0  0
    8.4640   -2.9150   19.8090 C   0  0  0  0  0  0  0  0  0  0  0  0
  1 12  1  0
  1 13  1  0
  1 16  1  0
 12  3  2  0
 12  9  1  0
 13 14  1  0
 16 15  1  0
  2  4  1  0
  4  7  2  0
  4 11  1  0
  7  8  1  0
 11 10  2  0
  5 14  1  0
  5 15  1  0
  5 17  1  0
 17  6  2  0
 17 18  1  0
  8  9  2  0
  9 10  1  0
M  END
