
     RDKit          3D

 10 10  0  0  0  0  0  0  0  0999 V2000
   22.8620  -20.1950   23.4330 N   0  0  0  0  0  0  0  0  0  0  0  0
   23.8100  -17.9730   24.1300 C   0  0  0  0  0  0  0  0  0  0  0  0
   22.9360  -18.7220   23.1140 C   0  0  0  0  0  0  0  0  0  0  0  0
   20.6300  -24.0740   24.1780 N   0  0  0  0  0  0  0  0  0  0  0  0
   21.6140  -20.5280   24.1950 C   0  0  0  0  0  0  0  0  0  0  0  0
   20.2620  -23.6120   22.9450 N   0  0  0  0  0  0  0  0  0  0  0  0
   21.1990  -21.9430   24.0130 C   0  0  0  0  0  0  0  0  0  0  0  0
   20.5960  -22.3810   22.8390 N   0  0  0  0  0  0  0  0  0  0  0  0
   21.2350  -23.0320   24.8910 C   0  0  0  0  0  0  0  0  0  0  0  0
   20.4160  -25.4640   24.6200 C   0  0  0  0  0  0  0  0  0  0  0  0
  1  3  1  0
  1  5  1  0
  3  2  1  0
  5  7  1  0
  4  6  1  0
  4  9  1  0
  4 10  1  0
  6  8  2  0
  9  7  2  0
  7  8  1  0
M  END
