
     RDKit          3D

 18 19  0  0  0  0  0  0  0  0999 V2000
   23.6690  -16.4730   26.1240 N   0  0  0  0  0  0  0  0  0  0  0  0
   24.4690  -17.6000   25.6580 C   0  0  0  0  0  0  0  0  0  0  0  0
   25.5540  -17.7340   26.1060 O   0  0  0  0  0  0  0  0  0  0  0  0
   23.9640  -18.6490   24.6560 C   0  0  2  0  0  0  0  0  0  0  0  0
   24.7180  -18.6890   23.3830 C   0  0  0  0  0  0  0  0  0  0  0  0
   24.3310  -19.9180   22.5530 C   0  0  0  0  0  0  0  0  0  0  0  0
   22.9300  -20.4810   22.7310 N   0  0  0  0  0  0  0  0  0  0  0  0
   22.1020  -19.8770   23.8280 C   0  0  0  0  0  0  0  0  0  0  0  0
   22.5450  -18.5070   24.3130 C   0  0  0  0  0  0  0  0  0  0  0  0
   22.3320  -21.5640   21.9500 C   0  0  0  0  0  0  0  0  0  0  0  0
   21.2260  -21.9210   22.2000 O   0  0  0  0  0  0  0  0  0  0  0  0
   23.0540  -22.2010   20.8660 N   0  0  0  0  0  0  0  0  0  0  0  0
   22.4600  -23.2650   20.0890 C   0  0  0  0  0  0  0  0  0  0  0  0
   22.3710  -23.1000   18.7200 C   0  0  0  0  0  0  0  0  0  0  0  0
   21.8180  -24.1030   17.9360 C   0  0  0  0  0  0  0  0  0  0  0  0
   21.3570  -25.2720   18.5300 C   0  0  0  0  0  0  0  0  0  0  0  0
   21.4480  -25.4370   19.9070 C   0  0  0  0  0  0  0  0  0  0  0  0
   22.0000  -24.4340   20.6880 C   0  0  0  0  0  0  0  0  0  0  0  0
  1  2  1  0
  2  3  2  0
  4  2  1  1
  4  5  1  0
  4  9  1  0
  5  6  1  0
  9  8  1  0
  6  7  1  0
  7  8  1  0
  7 10  1  0
 10 11  2  0
 10 12  1  0
 12 13  1  0
 13 14  2  0
 13 18  1  0
 14 15  1  0
 18 17  2  0
 15 16  2  0
 16 17  1  0
M  END
