
     RDKit          3D

 19 20  0  0  0  0  0  0  0  0999 V2000
    6.6370   -5.0080   21.8500 N   0  0  0  0  0  0  0  0  0  0  0  0
    7.8690   -3.5450   20.3490 C   0  0  0  0  0  0  0  0  0  0  0  0
    5.8310   -4.6160   19.7810 O   0  0  0  0  0  0  0  0  0  0  0  0
    0.6260   -1.2560   26.2370 Cl  0  0  0  0  0  0  0  0  0  0  0  0
    6.6910   -4.4370   20.6310 C   0  0  0  0  0  0  0  0  0  0  0  0
    5.8350   -5.3720   24.5030 N   0  0  0  0  0  0  0  0  0  0  0  0
    6.3210   -4.9930   26.8780 O   0  0  0  0  0  0  0  0  0  0  0  0
    5.7100   -6.0850   22.2020 C   0  0  0  0  0  0  0  0  0  0  0  0
    4.6890   -6.7270   26.1980 O   0  0  0  0  0  0  0  0  0  0  0  0
    4.9020   -5.7070   23.4160 C   0  0  0  0  0  0  0  0  0  0  0  0
    6.6640   -4.2150   24.1490 C   0  0  0  0  0  0  0  0  0  0  0  0
    7.4990   -4.6030   22.9620 C   0  0  0  0  0  0  0  0  0  0  0  0
    3.9470   -4.2490   26.1090 C   0  0  0  0  0  0  0  0  0  0  0  0
    4.2280   -2.9350   26.4200 C   0  0  0  0  0  0  0  0  0  0  0  0
    3.2030   -2.0090   26.4630 C   0  0  0  0  0  0  0  0  0  0  0  0
    1.9190   -2.4180   26.1830 C   0  0  0  0  0  0  0  0  0  0  0  0
    1.6310   -3.7250   25.8650 C   0  0  0  0  0  0  0  0  0  0  0  0
    2.6580   -4.6480   25.8210 C   0  0  0  0  0  0  0  0  0  0  0  0
    5.2560   -5.4280   26.0320 S   0  0  2  0  0  0  0  0  0  0  0  0
  1  5  1  0
  1  8  1  0
  1 12  1  0
  5  2  1  0
  5  3  2  0
  8 10  1  0
 12 11  1  0
  4 16  1  0
 16 15  2  0
 16 17  1  0
  6 19  1  0
  6 10  1  0
  6 11  1  0
 19  7  2  0
 19  9  2  0
 19 13  1  6
 13 14  2  0
 13 18  1  0
 14 15  1  0
 18 17  2  0
M  END
