
     RDKit          3D

 15 16  0  0  0  0  0  0  0  0999 V2000
    6.8280   -2.5170   20.8590 N   0  0  0  0  0  0  0  0  0  0  0  0
    7.1000   -2.4930   18.4110 C   0  0  0  0  0  0  0  0  0  0  0  0
    5.8130   -4.0930   19.6280 O   0  0  0  0  0  0  0  0  0  0  0  0
    6.5090   -3.0810   19.6780 C   0  0  0  0  0  0  0  0  0  0  0  0
    8.6610   -2.2340   23.0200 N   0  0  0  0  0  0  0  0  0  0  0  0
    7.5410   -1.2590   21.0600 C   0  0  0  0  0  0  0  0  0  0  0  0
    8.8570   -1.5540   21.7360 C   0  0  0  0  0  0  0  0  0  0  0  0
    9.9650   -2.5840   23.6050 C   0  0  0  0  0  0  0  0  0  0  0  0
   10.9290   -1.4450   23.6420 C   0  0  0  0  0  0  0  0  0  0  0  0
   12.0220   -1.2010   22.8020 C   0  0  0  0  0  0  0  0  0  0  0  0
   12.7050   -0.0180   23.1790 C   0  0  0  0  0  0  0  0  0  0  0  0
   12.0230    0.7040   24.0940 C   0  0  0  0  0  0  0  0  0  0  0  0
    7.8790   -3.4580   22.8170 C   0  0  0  0  0  0  0  0  0  0  0  0
    6.5640   -3.1660   22.1360 C   0  0  0  0  0  0  0  0  0  0  0  0
   10.7920   -0.2100   24.8270 S   0  0  0  0  0  0  0  0  0  0  0  0
  1  4  1  0
  1  6  1  0
  1 14  1  0
  4  2  1  0
  4  3  2  0
  6  7  1  0
 14 13  1  0
  5  7  1  0
  5  8  1  0
  5 13  1  0
  8  9  1  0
  9 10  2  0
  9 15  1  0
 10 11  1  0
 15 12  1  0
 11 12  2  0
M  END
