
     RDKit          3D

 15 16  0  0  0  0  0  0  0  0999 V2000
    9.8280    1.5340   21.3750 N   0  0  0  0  0  0  0  0  0  0  0  0
    9.6870    0.5710   21.9880 C   0  0  0  0  0  0  0  0  0  0  0  0
    7.2250   -5.7910   25.4660 O   0  0  0  0  0  0  0  0  0  0  0  0
    9.5170   -0.5760   22.7830 C   0  0  0  0  0  0  0  0  0  0  0  0
   10.1360   -1.7210   22.3680 N   0  0  0  0  0  0  0  0  0  0  0  0
    8.8080   -0.4710   23.9670 C   0  0  0  0  0  0  0  0  0  0  0  0
    9.4550   -3.9610   25.2940 N   0  0  0  0  0  0  0  0  0  0  0  0
    8.7340   -1.5760   24.8080 C   0  0  0  0  0  0  0  0  0  0  0  0
    9.3770   -2.7830   24.4610 C   0  0  0  0  0  0  0  0  0  0  0  0
   10.0550   -2.7770   23.1960 C   0  0  0  0  0  0  0  0  0  0  0  0
    9.8210   -5.2820   24.7120 C   0  0  0  0  0  0  0  0  0  0  0  0
    8.8390   -5.7960   23.6540 C   0  0  0  0  0  0  0  0  0  0  0  0
    7.3710   -5.5800   24.0660 C   0  0  0  0  0  0  0  0  0  0  0  0
    7.2090   -4.6590   26.3010 C   0  0  0  0  0  0  0  0  0  0  0  0
    8.6230   -4.0630   26.5250 C   0  0  0  0  0  0  0  0  0  0  0  0
  1  2  3  0
  2  4  1  0
  4  5  2  0
  4  6  1  0
  3 13  1  0
  3 14  1  0
 13 12  1  0
 14 15  1  0
  5 10  1  0
  6  8  2  0
 10  9  2  0
  8  9  1  0
  7  9  1  0
  7 11  1  0
  7 15  1  0
 11 12  1  0
M  END
