
     RDKit          3D

 18 19  0  0  0  0  0  0  0  0999 V2000
    6.7850   -4.2730   21.9570 N   0  0  0  0  0  0  0  0  0  0  0  0
    7.7140   -4.7300   19.8820 C   0  0  0  0  0  0  0  0  0  0  0  0
    5.3970   -4.2130   20.1550 O   0  0  0  0  0  0  0  0  0  0  0  0
    6.4920   -4.3740   20.6620 C   0  0  0  0  0  0  0  0  0  0  0  0
    1.9940   -6.6270   23.9450 N   0  0  0  0  0  0  0  0  0  0  0  0
    3.6950   -7.8170   24.8280 O   0  0  0  0  0  0  0  0  0  0  0  0
    5.9040   -4.4120   23.0410 C   0  0  0  0  0  0  0  0  0  0  0  0
    5.8880   -3.3960   23.9900 C   0  0  0  0  0  0  0  0  0  0  0  0
    5.0220   -3.4820   25.0570 C   0  0  0  0  0  0  0  0  0  0  0  0
    4.1740   -4.5700   25.1850 C   0  0  0  0  0  0  0  0  0  0  0  0
    4.1860   -5.5890   24.2400 C   0  0  0  0  0  0  0  0  0  0  0  0
    5.0500   -5.5050   23.1480 C   0  0  0  0  0  0  0  0  0  0  0  0
    3.2610   -6.7640   24.3660 C   0  0  0  0  0  0  0  0  0  0  0  0
    1.4850   -5.4280   23.2670 C   0  0  0  0  0  0  0  0  0  0  0  0
    0.3870   -4.7780   24.0800 C   0  0  0  0  0  0  0  0  0  0  0  0
   -0.1600   -7.2520   24.9460 C   0  0  0  0  0  0  0  0  0  0  0  0
    0.9920   -7.6920   24.0720 C   0  0  0  0  0  0  0  0  0  0  0  0
   -1.0480   -5.8450   24.2640 S   0  0  0  0  0  0  0  0  0  0  0  0
  1  4  1  0
  1  7  1  0
  4  2  1  0
  4  3  2  0
  7  8  2  0
  7 12  1  0
  5 13  1  0
  5 14  1  0
  5 17  1  0
 13 11  1  0
 13  6  2  0
 14 15  1  0
 17 16  1  0
  8  9  1  0
 12 11  2  0
  9 10  2  0
 10 11  1  0
 15 18  1  0
 18 16  1  0
M  END
