
     RDKit          3D

 16 16  0  0  0  0  0  0  0  0999 V2000
    6.9350   -3.2550   26.5350 N   0  0  0  0  0  0  0  0  0  0  0  0
    8.9140   -4.6490   27.1020 C   0  0  0  0  0  0  0  0  0  0  0  0
    4.9320   -3.1380   25.4850 O   0  0  0  0  0  0  0  0  0  0  0  0
    7.4690   -4.3210   27.4200 C   0  0  2  0  0  0  0  0  0  0  0  0
    6.8890   -4.3720   21.3780 N   0  0  0  0  0  0  0  0  0  0  0  0
    5.5460   -4.9560   19.6600 O   0  0  0  0  0  0  0  0  0  0  0  0
    6.5830   -5.5500   27.4510 C   0  0  0  0  0  0  0  0  0  0  0  0
    7.4490   -1.9080   26.8000 C   0  0  0  0  0  0  0  0  0  0  0  0
    6.1160   -3.4900   25.4890 C   0  0  0  0  0  0  0  0  0  0  0  0
    6.7710   -4.0620   24.2430 C   0  0  1  0  0  0  0  0  0  0  0  0
    5.8320   -5.0030   23.4840 C   0  0  0  0  0  0  0  0  0  0  0  0
    6.4970   -5.5030   22.2260 C   0  0  0  0  0  0  0  0  0  0  0  0
    7.8220   -3.4540   22.0400 C   0  0  0  0  0  0  0  0  0  0  0  0
    7.2160   -2.9230   23.3180 C   0  0  0  0  0  0  0  0  0  0  0  0
    6.4010   -4.2150   20.1260 C   0  0  0  0  0  0  0  0  0  0  0  0
    6.9500   -3.0830   19.3000 C   0  0  0  0  0  0  0  0  0  0  0  0
  1  4  1  0
  1  8  1  0
  1  9  1  0
  4  2  1  6
  4  7  1  0
  9  3  2  0
 10  9  1  1
  5 12  1  0
  5 13  1  0
  5 15  1  0
 12 11  1  0
 13 14  1  0
 15  6  2  0
 15 16  1  0
 10 11  1  0
 10 14  1  0
M  END
