
     RDKit          3D

 20 21  0  0  0  0  0  0  0  0999 V2000
    6.9330   -3.3920   21.1570 N   0  0  0  0  0  0  0  0  0  0  0  0
    6.8460   -2.8320   18.7790 C   0  0  0  0  0  0  0  0  0  0  0  0
    5.5960   -4.5640   19.7580 O   0  0  0  0  0  0  0  0  0  0  0  0
    6.4030   -3.6650   19.9430 C   0  0  0  0  0  0  0  0  0  0  0  0
    7.0080   -2.3570   23.7380 N   0  0  0  0  0  0  0  0  0  0  0  0
    8.0350   -0.7500   25.3160 O   0  0  0  0  0  0  0  0  0  0  0  0
    7.8400   -2.2850   21.4940 C   0  0  0  0  0  0  0  0  0  0  0  0
   10.4360   -2.5940   24.0200 N   0  0  0  0  0  0  0  0  0  0  0  0
    5.7480   -1.5980   25.7310 O   0  0  0  0  0  0  0  0  0  0  0  0
    7.2750   -1.4490   22.6150 C   0  0  0  0  0  0  0  0  0  0  0  0
    6.0040   -3.3750   23.3990 C   0  0  0  0  0  0  0  0  0  0  0  0
    6.6000   -4.2290   22.3120 C   0  0  0  0  0  0  0  0  0  0  0  0
    7.7610   -3.1840   26.1890 C   0  0  0  0  0  0  0  0  0  0  0  0
    7.0200   -3.7760   27.2080 C   0  0  0  0  0  0  0  0  0  0  0  0
    7.5350   -4.8540   27.9050 C   0  0  0  0  0  0  0  0  0  0  0  0
    8.7720   -5.3660   27.5880 C   0  0  0  0  0  0  0  0  0  0  0  0
    9.5190   -4.8110   26.5660 C   0  0  0  0  0  0  0  0  0  0  0  0
    9.0140   -3.7290   25.8540 C   0  0  0  0  0  0  0  0  0  0  0  0
    9.8060   -3.1520   24.7990 C   0  0  0  0  0  0  0  0  0  0  0  0
    7.0870   -1.8180   25.2840 S   0  0  1  0  0  0  0  0  0  0  0  0
  1  4  1  0
  1  7  1  0
  1 12  1  0
  4  2  1  0
  4  3  2  0
  7 10  1  0
 12 11  1  0
  5 20  1  0
  5 10  1  0
  5 11  1  0
 20  6  2  0
 20  9  2  0
 20 13  1  1
  8 19  3  0
 19 18  1  0
 13 14  2  0
 13 18  1  0
 14 15  1  0
 18 17  2  0
 15 16  2  0
 16 17  1  0
M  END
