
     RDKit          3D

  7  7  0  0  0  0  0  0  0  0999 V2000
   12.9980  -27.3270    3.9830 N   0  0  0  0  0  0  0  0  0  0  0  0
   11.8870  -26.6280    3.5770 C   0  0  0  0  0  0  0  0  0  0  0  0
   10.7800  -27.3390    3.2610 O   0  0  0  0  0  0  0  0  0  0  0  0
   11.8290  -25.2210    3.4410 C   0  0  0  0  0  0  0  0  0  0  0  0
   12.9890  -24.5130    3.7400 C   0  0  0  0  0  0  0  0  0  0  0  0
   14.1460  -25.1960    4.1510 C   0  0  0  0  0  0  0  0  0  0  0  0
   14.1020  -26.5900    4.2570 C   0  0  0  0  0  0  0  0  0  0  0  0
  1  2  2  0
  1  7  1  0
  2  3  1  0
  2  4  1  0
  7  6  2  0
  4  5  2  0
  5  6  1  0
M  END
