
     RDKit          3D

 16 17  0  0  0  0  0  0  0  0999 V2000
    5.7440   -4.2770   19.7180 O   0  0  0  0  0  0  0  0  0  0  0  0
    6.5250   -3.3670   19.9670 C   0  0  0  0  0  0  0  0  0  0  0  0
    7.1700   -2.6060   18.8400 C   0  0  0  0  0  0  0  0  0  0  0  0
    6.8450   -3.0150   21.2320 N   0  0  0  0  0  0  0  0  0  0  0  0
    6.2900   -3.7160   22.3990 C   0  0  0  0  0  0  0  0  0  0  0  0
    7.3990   -4.3160   23.2290 C   0  0  0  0  0  0  0  0  0  0  0  0
    8.5870   -3.5120   23.2000 O   0  0  0  0  0  0  0  0  0  0  0  0
    8.3060   -2.1350   22.9940 C   0  0  1  0  0  0  0  0  0  0  0  0
    9.5840   -1.3700   23.2370 C   0  0  0  0  0  0  0  0  0  0  0  0
    9.7110   -0.6040   24.3830 C   0  0  0  0  0  0  0  0  0  0  0  0
   10.8600    0.1140   24.6370 C   0  0  0  0  0  0  0  0  0  0  0  0
   11.8720    0.0490   23.7310 C   0  0  0  0  0  0  0  0  0  0  0  0
   11.8020   -0.6910   22.5850 C   0  0  0  0  0  0  0  0  0  0  0  0
   10.6460   -1.4090   22.3450 C   0  0  0  0  0  0  0  0  0  0  0  0
    7.7170   -1.9050   21.6080 C   0  0  0  0  0  0  0  0  0  0  0  0
   13.0020    0.7570   23.9890 F   0  0  0  0  0  0  0  0  0  0  0  0
  1  2  2  0
  2  3  1  0
  2  4  1  0
  4  5  1  0
  4 15  1  0
  5  6  1  0
 15  8  1  0
  6  7  1  0
  7  8  1  0
  8  9  1  6
  9 10  2  0
  9 14  1  0
 10 11  1  0
 14 13  2  0
 11 12  2  0
 12 13  1  0
 12 16  1  0
M  END
