
     RDKit          3D

 15 14  0  0  0  0  0  0  0  0999 V2000
    1.2450   -8.6390   21.1250 C   0  0  0  0  0  0  0  0  0  0  0  0
    2.6750   -7.2390   22.4800 N   0  0  0  0  0  0  0  0  0  0  0  0
    0.6140   -6.5070   21.9670 O   0  0  0  0  0  0  0  0  0  0  0  0
    1.4780   -7.3790   21.8950 C   0  0  0  0  0  0  0  0  0  0  0  0
    2.1140   -8.4080   25.9840 N   0  0  0  0  0  0  0  0  0  0  0  0
    3.9040   -8.4160   24.6420 O   0  0  0  0  0  0  0  0  0  0  0  0
    2.9910   -6.0870   23.3230 C   0  0  1  0  0  0  0  0  0  0  0  0
    5.2710   -6.1120   22.3210 N   0  0  0  0  0  0  0  0  0  0  0  0
    4.7240   -4.5360   23.8250 O   0  0  0  0  0  0  0  0  0  0  0  0
    2.6810   -6.3760   24.7930 C   0  0  0  0  0  0  0  0  0  0  0  0
    2.9490   -7.8270   25.1370 C   0  0  0  0  0  0  0  0  0  0  0  0
    4.4110   -5.5270   23.1690 C   0  0  0  0  0  0  0  0  0  0  0  0
    6.5070   -5.4650   21.8700 C   0  0  0  0  0  0  0  0  0  0  0  0
    6.5120   -5.1140   20.3870 C   0  0  0  0  0  0  0  0  0  0  0  0
    5.5460   -5.6240   19.6570 C   0  0  0  0  0  0  0  0  0  0  0  0
  1  4  1  0
  4  2  1  0
  4  3  2  0
  2  7  1  0
  7 10  1  1
  7 12  1  0
  5 11  1  0
 11 10  1  0
 11  6  2  0
 12  8  1  0
 12  9  2  0
  8 13  1  0
 13 14  1  0
 14 15  2  0
M  END
