
     RDKit          3D

  7  7  0  0  0  0  0  0  0  0999 V2000
   24.5530   -7.7440    5.2790 C   0  0  2  0  0  0  0  0  0  0  0  0
   24.6960   -7.2490    3.9930 O   0  0  0  0  0  0  0  0  0  0  0  0
   23.4840   -8.8620    5.2960 C   0  0  0  0  0  0  0  0  0  0  0  0
   21.2680   -7.5610    5.5560 O   0  0  0  0  0  0  0  0  0  0  0  0
   23.6710   -6.8090    6.1360 C   0  0  0  0  0  0  0  0  0  0  0  0
   22.2610   -8.3800    7.5720 O   0  0  0  0  0  0  0  0  0  0  0  0
   22.4230   -7.9400    6.2580 S   0  0  2  0  0  0  0  0  0  0  0  0
  1  2  1  6
  1  3  1  0
  1  5  1  0
  7  3  1  6
  5  7  1  0
  7  4  2  0
  7  6  2  0
M  END
