
     RDKit          3D

 12 12  0  0  0  0  0  0  0  0999 V2000
    6.1190   -5.1130   24.3100 N   0  0  0  0  0  0  0  0  0  0  0  0
    4.8080   -6.1180   26.1080 C   0  0  0  0  0  0  0  0  0  0  0  0
    7.0960   -5.5370   26.2830 O   0  0  0  0  0  0  0  0  0  0  0  0
    6.0940   -5.5660   25.5780 C   0  0  0  0  0  0  0  0  0  0  0  0
    6.8000   -4.9090   21.5770 N   0  0  0  0  0  0  0  0  0  0  0  0
    5.8900   -4.2370   19.6140 O   0  0  0  0  0  0  0  0  0  0  0  0
    5.1570   -5.5030   23.2740 C   0  0  0  0  0  0  0  0  0  0  0  0
    5.8630   -5.9400   22.0070 C   0  0  0  0  0  0  0  0  0  0  0  0
    7.7850   -4.5900   22.6080 C   0  0  0  0  0  0  0  0  0  0  0  0
    7.0860   -4.1150   23.8580 C   0  0  0  0  0  0  0  0  0  0  0  0
    6.8300   -4.2630   20.3960 C   0  0  0  0  0  0  0  0  0  0  0  0
    8.1270   -3.5690   20.0940 C   0  0  0  0  0  0  0  0  0  0  0  0
  1  4  1  0
  1  7  1  0
  1 10  1  0
  4  2  1  0
  4  3  2  0
  7  8  1  0
 10  9  1  0
  5  8  1  0
  5  9  1  0
  5 11  1  0
 11  6  2  0
 11 12  1  0
M  END
