
     RDKit          3D

 19 20  0  0  0  0  0  0  0  0999 V2000
    5.4130   -5.2400   24.3890 N   0  0  0  0  0  0  0  0  0  0  0  0
    4.1300   -2.4960   26.0530 C   0  0  0  0  0  0  0  0  0  0  0  0
    5.7110   -4.9950   26.8140 O   0  0  0  0  0  0  0  0  0  0  0  0
    3.3040   -1.3960   26.0950 C   0  0  0  0  0  0  0  0  0  0  0  0
    6.4720   -4.9530   21.8030 N   0  0  0  0  0  0  0  0  0  0  0  0
    3.8430   -6.3570   25.9360 O   0  0  0  0  0  0  0  0  0  0  0  0
    1.9370   -1.5790   25.9890 C   0  0  0  0  0  0  0  0  0  0  0  0
    5.7540   -4.5630   19.6990 O   0  0  0  0  0  0  0  0  0  0  0  0
    1.4030   -2.8400   25.8400 C   0  0  0  0  0  0  0  0  0  0  0  0
    2.2320   -3.9460   25.7930 C   0  0  0  0  0  0  0  0  0  0  0  0
    3.6070   -3.7830   25.8960 C   0  0  0  0  0  0  0  0  0  0  0  0
    6.3710   -4.1630   24.0960 C   0  0  0  0  0  0  0  0  0  0  0  0
    7.2740   -4.6060   22.9770 C   0  0  0  0  0  0  0  0  0  0  0  0
    5.5130   -6.0150   22.0990 C   0  0  0  0  0  0  0  0  0  0  0  0
    4.5970   -5.5880   23.2160 C   0  0  0  0  0  0  0  0  0  0  0  0
    6.5750   -4.3730   20.5860 C   0  0  0  0  0  0  0  0  0  0  0  0
    7.7510   -3.4670   20.3430 C   0  0  0  0  0  0  0  0  0  0  0  0
    5.4650   -2.3050   26.1590 F   0  0  0  0  0  0  0  0  0  0  0  0
    4.6720   -5.1950   25.8520 S   0  0  2  0  0  0  0  0  0  0  0  0
  1 12  1  0
  1 15  1  0
  1 19  1  0
 12 13  1  0
 15 14  1  0
 19  3  2  0
 19  6  2  0
 19 11  1  6
  2  4  2  0
  2 11  1  0
  2 18  1  0
  4  7  1  0
 11 10  2  0
  7  9  2  0
  5 13  1  0
  5 14  1  0
  5 16  1  0
 16  8  2  0
 16 17  1  0
  9 10  1  0
M  END
