
     RDKit          3D

 19 20  0  0  0  0  0  0  0  0999 V2000
    5.3270   -5.4730   24.3670 N   0  0  0  0  0  0  0  0  0  0  0  0
    2.7600   -1.9000   25.8130 C   0  0  0  0  0  0  0  0  0  0  0  0
    3.9020   -6.7110   25.9450 O   0  0  0  0  0  0  0  0  0  0  0  0
    1.4200   -2.1920   25.7230 C   0  0  0  0  0  0  0  0  0  0  0  0
    6.3490   -5.0580   21.7740 N   0  0  0  0  0  0  0  0  0  0  0  0
    5.5710   -5.0920   26.7890 O   0  0  0  0  0  0  0  0  0  0  0  0
    1.0530   -3.5220   25.6690 C   0  0  0  0  0  0  0  0  0  0  0  0
    5.6390   -4.4440   19.7150 O   0  0  0  0  0  0  0  0  0  0  0  0
    2.0160   -4.5200   25.6990 C   0  0  0  0  0  0  0  0  0  0  0  0
    3.3580   -4.1840   25.7860 C   0  0  0  0  0  0  0  0  0  0  0  0
    3.7480   -2.8580   25.8450 C   0  0  0  0  0  0  0  0  0  0  0  0
    6.3630   -4.4520   24.1360 C   0  0  0  0  0  0  0  0  0  0  0  0
    7.1990   -4.8460   22.9470 C   0  0  0  0  0  0  0  0  0  0  0  0
    5.3280   -6.0740   22.0210 C   0  0  0  0  0  0  0  0  0  0  0  0
    4.4680   -5.6630   23.1870 C   0  0  0  0  0  0  0  0  0  0  0  0
    6.4860   -4.4020   20.5980 C   0  0  0  0  0  0  0  0  0  0  0  0
    7.7520   -3.6130   20.3900 C   0  0  0  0  0  0  0  0  0  0  0  0
    3.1340   -0.6030   25.8670 F   0  0  0  0  0  0  0  0  0  0  0  0
    4.5810   -5.4590   25.8260 S   0  0  1  0  0  0  0  0  0  0  0  0
  1 12  1  0
  1 15  1  0
  1 19  1  0
 12 13  1  0
 15 14  1  0
 19  3  2  0
 19  6  2  0
 19 10  1  6
  2  4  2  0
  2 11  1  0
  2 18  1  0
  4  7  1  0
 11 10  2  0
  7  9  2  0
  5 13  1  0
  5 14  1  0
  5 16  1  0
 16  8  2  0
 16 17  1  0
  9 10  1  0
M  END
