
     RDKit          3D

 13 13  0  0  0  0  0  0  0  0999 V2000
   13.8010   -1.8510   21.3570 Cl  0  0  0  0  0  0  0  0  0  0  0  0
    7.7170   -1.2340   23.5700 C   0  0  0  0  0  0  0  0  0  0  0  0
    8.8850   -2.0090   22.9650 C   0  0  1  0  0  0  0  0  0  0  0  0
    8.5350   -2.4800   21.6120 N   0  0  0  0  0  0  0  0  0  0  0  0
    8.1830   -1.7020   20.5790 C   0  0  0  0  0  0  0  0  0  0  0  0
    8.1140   -0.4700   20.6430 O   0  0  0  0  0  0  0  0  0  0  0  0
    7.8460   -2.3760   19.2470 C   0  0  0  0  0  0  0  0  0  0  0  0
   10.2140   -1.2700   22.9860 C   0  0  0  0  0  0  0  0  0  0  0  0
   10.4290   -0.1230   23.7410 C   0  0  0  0  0  0  0  0  0  0  0  0
   11.6680    0.4950   23.7420 C   0  0  0  0  0  0  0  0  0  0  0  0
   12.7160   -0.0250   23.0200 C   0  0  0  0  0  0  0  0  0  0  0  0
   12.5030   -1.1670   22.2890 C   0  0  0  0  0  0  0  0  0  0  0  0
   11.2770   -1.7870   22.2700 C   0  0  0  0  0  0  0  0  0  0  0  0
  1 12  1  0
 12 11  1  0
 12 13  2  0
  3  2  1  6
  3  4  1  0
  3  8  1  0
  4  5  1  0
  8  9  2  0
  8 13  1  0
  5  6  2  0
  5  7  1  0
  9 10  1  0
 10 11  2  0
M  END
