
     RDKit          3D

  7  7  0  0  0  0  0  0  0  0999 V2000
    3.6530    2.1240   19.5490 N   0  0  0  0  0  0  0  0  0  0  0  0
    4.6220    1.2870   19.1480 C   0  0  0  0  0  0  0  0  0  0  0  0
    5.0620    0.2090   19.9580 C   0  0  0  0  0  0  0  0  0  0  0  0
    5.9900   -0.6660   19.5440 N   0  0  0  0  0  0  0  0  0  0  0  0
    6.5100   -0.4470   18.2890 C   0  0  0  0  0  0  0  0  0  0  0  0
    6.1770    0.5510   17.4490 N   0  0  0  0  0  0  0  0  0  0  0  0
    5.2370    1.4080   17.8730 C   0  0  0  0  0  0  0  0  0  0  0  0
  1  2  1  0
  2  3  2  0
  2  7  1  0
  3  4  1  0
  7  6  2  0
  4  5  2  0
  5  6  1  0
M  END
