
     RDKit          3D

 18 20  0  0  0  0  0  0  0  0999 V2000
    0.2290   29.5950   -9.4330 O   0  0  0  0  0  0  0  0  0  0  0  0
   -0.9340   29.7540   -9.2430 C   0  0  0  0  0  0  0  0  0  0  0  0
   -1.3930   30.8870   -8.4490 N   0  0  0  0  0  0  0  0  0  0  0  0
   -2.8210   31.0440   -8.2280 C   0  0  0  0  0  0  0  0  0  0  0  0
   -3.3990   32.3150   -8.8490 C   0  0  0  0  0  0  0  0  0  0  0  0
   -2.5280   33.5550   -8.6340 C   0  0  0  0  0  0  0  0  0  0  0  0
   -1.2570   33.5390   -9.4840 C   0  0  0  0  0  0  0  0  0  0  0  0
   -0.0310   33.0010   -8.7560 C   0  0  0  0  0  0  0  0  0  0  0  0
   -0.3560   31.7710   -7.9270 C   0  0  0  0  0  0  0  0  0  0  0  0
   -1.9060   28.7140   -9.7950 C   0  0  0  0  0  0  0  0  0  0  0  0
   -2.3890   28.7190  -11.0880 C   0  0  0  0  0  0  0  0  0  0  0  0
   -3.2680   27.7260  -11.5210 C   0  0  0  0  0  0  0  0  0  0  0  0
   -3.6730   26.6980  -10.6500 C   0  0  0  0  0  0  0  0  0  0  0  0
   -4.5370   25.6000  -10.8350 O   0  0  0  0  0  0  0  0  0  0  0  0
   -4.6940   25.0050   -9.5800 C   0  0  0  0  0  0  0  0  0  0  0  0
   -3.7570   25.5770   -8.7030 O   0  0  0  0  0  0  0  0  0  0  0  0
   -3.2010   26.6860   -9.3760 C   0  0  0  0  0  0  0  0  0  0  0  0
   -2.3060   27.6990   -8.9400 C   0  0  0  0  0  0  0  0  0  0  0  0
  1  2  2  0
  2  3  1  0
  2 10  1  0
  3  4  1  0
  3  9  1  0
 10 11  2  0
 10 18  1  0
  4  5  1  0
  9  8  1  0
  5  6  1  0
  6  7  1  0
  7  8  1  0
 11 12  1  0
 18 17  2  0
 12 13  2  0
 13 14  1  0
 13 17  1  0
 14 15  1  0
 17 16  1  0
 15 16  1  0
M  END
