
     RDKit          3D

 11 11  0  0  0  0  0  0  0  0999 V2000
    8.3220    0.0320   27.4420 C   0  0  0  0  0  0  0  0  0  0  0  0
    8.8840   -0.5190   26.1510 C   0  0  0  0  0  0  0  0  0  0  0  0
   10.0180    0.2860   25.7380 N   0  0  0  0  0  0  0  0  0  0  0  0
   10.8490   -0.1570   24.6450 C   0  0  0  0  0  0  0  0  0  0  0  0
   10.5000   -1.2930   23.9260 C   0  0  0  0  0  0  0  0  0  0  0  0
   11.2930   -1.7080   22.8750 C   0  0  0  0  0  0  0  0  0  0  0  0
   12.4230   -0.9730   22.5660 C   0  0  0  0  0  0  0  0  0  0  0  0
   13.3210   -1.4150   21.4190 C   0  0  0  0  0  0  0  0  0  0  0  0
   14.0050   -1.7200   20.5660 N   0  0  0  0  0  0  0  0  0  0  0  0
   12.7140    0.1550   23.3310 C   0  0  0  0  0  0  0  0  0  0  0  0
   11.9300    0.5350   24.3380 N   0  0  0  0  0  0  0  0  0  0  0  0
  1  2  1  0
  2  3  1  0
  3  4  1  0
  4  5  2  0
  4 11  1  0
  5  6  1  0
 11 10  2  0
  6  7  2  0
  7  8  1  0
  7 10  1  0
  8  9  3  0
M  END
