
     RDKit          3D

 13 14  0  0  0  0  0  0  0  0999 V2000
    9.1840   -4.1840   27.8500 O   0  0  0  0  0  0  0  0  0  0  0  0
    9.0680   -4.7870   26.5840 C   0  0  2  0  0  0  0  0  0  0  0  0
   10.3090   -4.6360   25.8680 C   0  0  0  0  0  0  0  0  0  0  0  0
   10.5460   -3.2290   25.3080 C   0  0  0  0  0  0  0  0  0  0  0  0
    9.4370   -2.6600   24.5810 N   0  0  0  0  0  0  0  0  0  0  0  0
    9.5930   -1.4720   24.2750 C   0  0  0  0  0  0  0  0  0  0  0  0
   10.9710   -1.1140   23.7000 C   0  0  0  0  0  0  0  0  0  0  0  0
   11.8720   -0.0010   24.2280 C   0  0  0  0  0  0  0  0  0  0  0  0
   13.0860    0.0500   23.4640 C   0  0  0  0  0  0  0  0  0  0  0  0
   13.0590   -1.0850   22.3120 S   0  0  0  0  0  0  0  0  0  0  0  0
   11.6170   -1.7590   22.5970 C   0  0  0  0  0  0  0  0  0  0  0  0
    8.2210   -2.8070   25.3600 C   0  0  0  0  0  0  0  0  0  0  0  0
    7.9680   -4.2410   25.8320 C   0  0  0  0  0  0  0  0  0  0  0  0
  2  1  1  1
  2  3  1  0
  2 13  1  0
  3  4  1  0
 13 12  1  0
  4  5  1  0
  5  6  1  0
  5 12  1  0
  6  7  1  0
  7  8  1  0
  7 11  2  0
  8  9  2  0
 11 10  1  0
  9 10  1  0
M  END
