
     RDKit          3D

 14 13  0  0  0  0  0  0  0  0999 V2000
    1.9950   -8.0250   24.6780 C   0  0  0  0  0  0  0  0  0  0  0  0
    1.9370   -5.4520   23.0590 N   0  0  0  0  0  0  0  0  0  0  0  0
    4.3740   -7.6730   24.7170 O   0  0  0  0  0  0  0  0  0  0  0  0
    3.1170   -7.0210   24.5250 C   0  0  1  0  0  0  0  0  0  0  0  0
    5.3710   -5.9950   22.2240 N   0  0  0  0  0  0  0  0  0  0  0  0
    0.7000   -6.8780   21.8410 O   0  0  0  0  0  0  0  0  0  0  0  0
    3.1110   -6.3080   23.1580 C   0  0  2  0  0  0  0  0  0  0  0  0
    4.4090   -4.3210   23.3940 O   0  0  0  0  0  0  0  0  0  0  0  0
    0.8030   -5.8160   22.4550 C   0  0  0  0  0  0  0  0  0  0  0  0
   -0.3420   -4.8570   22.5530 C   0  0  0  0  0  0  0  0  0  0  0  0
    4.3670   -5.4590   22.9330 C   0  0  0  0  0  0  0  0  0  0  0  0
    6.6010   -5.2640   21.9170 C   0  0  0  0  0  0  0  0  0  0  0  0
    6.7160   -4.8200   20.5010 C   0  0  0  0  0  0  0  0  0  0  0  0
    5.9030   -5.2950   19.6160 C   0  0  0  0  0  0  0  0  0  0  0  0
  4  1  1  6
  4  3  1  0
  4  7  1  0
  7  2  1  1
  2  9  1  0
  7 11  1  0
  9  6  2  0
  9 10  1  0
  5 11  1  0
  5 12  1  0
 11  8  2  0
 12 13  1  0
 13 14  2  0
M  END
