
     RDKit          3D

 16 17  0  0  0  0  0  0  0  0999 V2000
    6.6430   -3.6380   21.8380 N   0  0  0  0  0  0  0  0  0  0  0  0
    8.2370   -3.2670   20.1310 C   0  0  0  0  0  0  0  0  0  0  0  0
    6.0160   -4.0360   19.6800 O   0  0  0  0  0  0  0  0  0  0  0  0
    6.8420   -3.6930   20.5100 C   0  0  0  0  0  0  0  0  0  0  0  0
    3.5830   -3.4220   25.5260 N   0  0  0  0  0  0  0  0  0  0  0  0
    5.3050   -1.9680   25.9670 O   0  0  0  0  0  0  0  0  0  0  0  0
    5.6910   -4.3140   22.6320 C   0  0  0  0  0  0  0  0  0  0  0  0
    5.3490   -5.6520   22.4410 C   0  0  0  0  0  0  0  0  0  0  0  0
    4.4170   -6.2370   23.2790 C   0  0  0  0  0  0  0  0  0  0  0  0
    3.8260   -5.5150   24.3030 C   0  0  0  0  0  0  0  0  0  0  0  0
    4.1800   -4.1860   24.4870 C   0  0  0  0  0  0  0  0  0  0  0  0
    5.1110   -3.5780   23.6550 C   0  0  0  0  0  0  0  0  0  0  0  0
    2.1950   -3.6350   25.9550 C   0  0  0  0  0  0  0  0  0  0  0  0
    1.8950   -2.4360   26.8300 C   0  0  0  0  0  0  0  0  0  0  0  0
    3.2600   -1.9640   27.2980 C   0  0  0  0  0  0  0  0  0  0  0  0
    4.2010   -2.4150   26.2150 C   0  0  0  0  0  0  0  0  0  0  0  0
  1  4  1  0
  1  7  1  0
  4  2  1  0
  4  3  2  0
  7  8  2  0
  7 12  1  0
  5 11  1  0
  5 13  1  0
  5 16  1  0
 11 10  1  0
 11 12  2  0
 13 14  1  0
 16 15  1  0
 16  6  2  0
  8  9  1  0
  9 10  2  0
 14 15  1  0
M  END
