
     RDKit          3D

 14 15  0  0  0  0  0  0  0  0999 V2000
   21.7540   -8.0230    5.8570 Cl  0  0  0  0  0  0  0  0  0  0  0  0
   23.5400   -8.0390    5.8480 C   0  0  0  0  0  0  0  0  0  0  0  0
   24.2840   -6.7550    6.2100 C   0  0  0  0  0  0  0  0  0  0  0  0
   25.6540   -6.7300    6.2230 C   0  0  0  0  0  0  0  0  0  0  0  0
   26.3960   -7.9260    5.8890 C   0  0  0  0  0  0  0  0  0  0  0  0
   25.6750   -9.1860    5.5370 C   0  0  0  0  0  0  0  0  0  0  0  0
   26.4810  -10.4330    5.2020 C   0  0  0  0  0  0  0  0  0  0  0  0
   26.8300  -11.1120    6.3100 N   0  0  0  0  0  0  0  0  0  0  0  0
   27.8110  -10.5180    7.0580 C   0  0  0  0  0  0  0  0  0  0  0  0
   28.2770  -11.2910    8.2790 C   0  0  0  0  0  0  0  0  0  0  0  0
   28.2510  -12.7140    8.1640 O   0  0  0  0  0  0  0  0  0  0  0  0
   27.4000  -13.2660    7.2490 C   0  0  0  0  0  0  0  0  0  0  0  0
   27.1920  -12.4430    5.9900 C   0  0  0  0  0  0  0  0  0  0  0  0
   24.2650   -9.2130    5.5220 C   0  0  0  0  0  0  0  0  0  0  0  0
  1  2  1  0
  2  3  2  0
  2 14  1  0
  3  4  1  0
 14  6  2  0
  4  5  2  0
  5  6  1  0
  6  7  1  0
  7  8  1  0
  8  9  1  0
  8 13  1  0
  9 10  1  0
 13 12  1  0
 10 11  1  0
 11 12  1  0
M  END
