
     RDKit          3D

 18 19  0  0  0  0  0  0  0  0999 V2000
    5.8540   -4.7140   20.1300 O   0  0  0  0  0  0  0  0  0  0  0  0
    6.6340   -4.3200   20.9880 C   0  0  0  0  0  0  0  0  0  0  0  0
    7.9340   -3.6510   20.5950 C   0  0  0  0  0  0  0  0  0  0  0  0
    6.3730   -4.4760   22.3330 N   0  0  0  0  0  0  0  0  0  0  0  0
    7.4450   -4.5020   23.2870 C   0  0  0  0  0  0  0  0  0  0  0  0
    7.9100   -3.3190   23.8570 C   0  0  0  0  0  0  0  0  0  0  0  0
    8.9360   -3.3560   24.7880 C   0  0  0  0  0  0  0  0  0  0  0  0
    9.4700   -4.5690   25.1250 C   0  0  0  0  0  0  0  0  0  0  0  0
    9.0380   -5.7480   24.5880 C   0  0  0  0  0  0  0  0  0  0  0  0
    8.0090   -5.7160   23.6620 C   0  0  0  0  0  0  0  0  0  0  0  0
    5.0030   -4.6750   22.8080 C   0  0  2  0  0  0  0  0  0  0  0  0
    4.8440   -4.3090   24.2830 C   0  0  0  0  0  0  0  0  0  0  0  0
    4.0850   -5.1420   24.9910 C   0  0  0  0  0  0  0  0  0  0  0  0
    3.9360   -6.6980   24.2140 S   0  0  2  0  0  0  0  0  0  0  0  0
    2.5510   -7.0660   24.0840 O   0  0  0  0  0  0  0  0  0  0  0  0
    4.8160   -7.6550   24.8290 O   0  0  0  0  0  0  0  0  0  0  0  0
    4.5920   -6.1490   22.6510 C   0  0  0  0  0  0  0  0  0  0  0  0
   10.4830   -4.6060   26.0300 F   0  0  0  0  0  0  0  0  0  0  0  0
  1  2  2  0
  2  3  1  0
  2  4  1  0
  4  5  1  0
 11  4  1  1
  5  6  2  0
  5 10  1  0
 11 12  1  0
 11 17  1  0
  6  7  1  0
 10  9  2  0
  7  8  2  0
  8  9  1  0
  8 18  1  0
 12 13  2  0
 14 17  1  6
 13 14  1  0
 14 15  2  0
 14 16  2  0
M  END
