
     RDKit          3D

 15 16  0  0  0  0  0  0  0  0999 V2000
   22.2920   15.0260    8.4690 C   0  0  0  0  0  0  0  0  0  0  0  0
   21.1810   14.9300    7.4260 C   0  0  2  0  0  0  0  0  0  0  0  0
   20.4730   13.5870    7.6750 C   0  0  1  0  0  0  0  0  0  0  0  0
   19.1050   13.7690    7.4270 O   0  0  0  0  0  0  0  0  0  0  0  0
   20.9590   12.4860    6.8810 C   0  0  0  0  0  0  0  0  0  0  0  0
   22.2690   12.6510    6.3100 C   0  0  0  0  0  0  0  0  0  0  0  0
   22.4930   13.9790    5.6030 C   0  0  0  0  0  0  0  0  0  0  0  0
   21.7120   15.1070    6.0810 N   0  0  0  0  0  0  0  0  0  0  0  0
   22.3560   16.1490    5.8970 C   0  0  0  0  0  0  0  0  0  0  0  0
   21.5470   17.4070    5.5790 C   0  0  0  0  0  0  0  0  0  0  0  0
   21.1810   17.6510    4.2610 C   0  0  0  0  0  0  0  0  0  0  0  0
   20.4650   18.7960    3.9390 C   0  0  0  0  0  0  0  0  0  0  0  0
   20.1290   19.7050    4.9320 C   0  0  0  0  0  0  0  0  0  0  0  0
   20.5020   19.4720    6.2490 C   0  0  0  0  0  0  0  0  0  0  0  0
   21.2210   18.3260    6.5730 C   0  0  0  0  0  0  0  0  0  0  0  0
  2  1  1  1
  2  3  1  0
  2  8  1  0
  3  4  1  6
  3  5  1  0
  8  7  1  0
  8  9  1  0
  5  6  1  0
  6  7  1  0
  9 10  1  0
 10 11  2  0
 10 15  1  0
 11 12  1  0
 15 14  2  0
 12 13  2  0
 13 14  1  0
M  END
