
     RDKit          3D

 17 18  0  0  0  0  0  0  0  0999 V2000
    6.6330   -2.6250   21.0460 N   0  0  0  0  0  0  0  0  0  0  0  0
    6.9600   -2.6080   18.6110 C   0  0  0  0  0  0  0  0  0  0  0  0
    5.6520   -4.2080   19.7540 O   0  0  0  0  0  0  0  0  0  0  0  0
   13.8560   -1.1240   21.5140 Cl  0  0  0  0  0  0  0  0  0  0  0  0
    6.3580   -3.2110   19.8540 C   0  0  0  0  0  0  0  0  0  0  0  0
    8.3320   -2.2350   23.3060 N   0  0  0  0  0  0  0  0  0  0  0  0
    6.2920   -3.2290   22.3340 C   0  0  0  0  0  0  0  0  0  0  0  0
    7.5500   -3.4630   23.1400 C   0  0  0  0  0  0  0  0  0  0  0  0
    9.5610   -2.5230   24.0550 C   0  0  0  0  0  0  0  0  0  0  0  0
   10.6600   -1.5080   23.8610 C   0  0  0  0  0  0  0  0  0  0  0  0
   10.7160   -0.3510   24.6210 C   0  0  0  0  0  0  0  0  0  0  0  0
   11.7320    0.5690   24.4260 C   0  0  0  0  0  0  0  0  0  0  0  0
   12.7100    0.3470   23.4770 C   0  0  0  0  0  0  0  0  0  0  0  0
   12.6450   -0.8030   22.7230 C   0  0  0  0  0  0  0  0  0  0  0  0
   11.6390   -1.7230   22.9080 C   0  0  0  0  0  0  0  0  0  0  0  0
    8.6100   -1.6150   22.0070 C   0  0  0  0  0  0  0  0  0  0  0  0
    7.3270   -1.3580   21.2520 C   0  0  0  0  0  0  0  0  0  0  0  0
  1  5  1  0
  1  7  1  0
  1 17  1  0
  5  2  1  0
  5  3  2  0
  7  8  1  0
 17 16  1  0
  4 14  1  0
 14 13  1  0
 14 15  2  0
  6  8  1  0
  6  9  1  0
  6 16  1  0
  9 10  1  0
 10 11  2  0
 10 15  1  0
 11 12  1  0
 12 13  2  0
M  END
