
     RDKit          3D

 18 19  0  0  0  0  0  0  0  0999 V2000
    5.1590   -4.7790   26.1570 N   0  0  0  0  0  0  0  0  0  0  0  0
    6.6160   -4.8980   26.2390 C   0  0  0  0  0  0  0  0  0  0  0  0
    4.5330   -5.6620   25.5920 O   0  0  0  0  0  0  0  0  0  0  0  0
    7.1360   -5.2890   27.4670 C   0  0  0  0  0  0  0  0  0  0  0  0
    6.9460   -4.2350   23.9170 N   0  0  0  0  0  0  0  0  0  0  0  0
    4.6250   -3.8220   26.6940 O   0  0  0  0  0  0  0  0  0  0  0  0
    8.5010   -5.4220   27.6200 C   0  0  0  0  0  0  0  0  0  0  0  0
    6.8220   -4.1480   21.0880 N   0  0  0  0  0  0  0  0  0  0  0  0
    5.3630   -4.5240   19.4090 O   0  0  0  0  0  0  0  0  0  0  0  0
    9.3520   -5.1670   26.5600 C   0  0  0  0  0  0  0  0  0  0  0  0
    8.8450   -4.7740   25.3330 C   0  0  0  0  0  0  0  0  0  0  0  0
    7.4720   -4.6330   25.1450 C   0  0  0  0  0  0  0  0  0  0  0  0
    7.3710   -3.0240   23.2040 C   0  0  0  0  0  0  0  0  0  0  0  0
    7.8290   -3.3520   21.7990 C   0  0  0  0  0  0  0  0  0  0  0  0
    6.4370   -5.3580   21.8110 C   0  0  0  0  0  0  0  0  0  0  0  0
    5.9280   -4.9950   23.1850 C   0  0  0  0  0  0  0  0  0  0  0  0
    6.2820   -3.8720   19.8820 C   0  0  0  0  0  0  0  0  0  0  0  0
    6.8950   -2.7700   19.0730 C   0  0  0  0  0  0  0  0  0  0  0  0
  1  2  1  0
  1  3  1  0
  1  6  2  0
  2  4  2  0
  2 12  1  0
  4  7  1  0
 12 11  2  0
 12  5  1  0
  7 10  2  0
  5 13  1  0
  5 16  1  0
 13 14  1  0
 16 15  1  0
 10 11  1  0
  8 14  1  0
  8 15  1  0
  8 17  1  0
 17  9  2  0
 17 18  1  0
M  CHG  2   1   1   3  -1
M  END
