
     RDKit          3D

 17 18  0  0  0  0  0  0  0  0999 V2000
    5.5470   -3.6500   23.7470 N   0  0  0  0  0  0  0  0  0  0  0  0
    1.2990   -2.3320   28.2990 C   0  0  0  0  0  0  0  0  0  0  0  0
    2.7190   -2.2060   28.3050 O   0  0  0  0  0  0  0  0  0  0  0  0
    3.4050   -2.5730   27.1780 C   0  0  0  0  0  0  0  0  0  0  0  0
    6.7000   -4.2620   21.2810 N   0  0  0  0  0  0  0  0  0  0  0  0
    5.6000   -4.9620   19.4430 O   0  0  0  0  0  0  0  0  0  0  0  0
    2.9020   -3.5310   26.3070 C   0  0  0  0  0  0  0  0  0  0  0  0
    3.6180   -3.8800   25.1770 C   0  0  0  0  0  0  0  0  0  0  0  0
    4.8530   -3.2960   24.8940 C   0  0  0  0  0  0  0  0  0  0  0  0
    5.3400   -2.3290   25.7780 C   0  0  0  0  0  0  0  0  0  0  0  0
    4.6270   -1.9750   26.9090 C   0  0  0  0  0  0  0  0  0  0  0  0
    5.2720   -4.9520   23.1120 C   0  0  0  0  0  0  0  0  0  0  0  0
    6.3120   -5.3940   22.1070 C   0  0  0  0  0  0  0  0  0  0  0  0
    7.4140   -3.2930   22.1010 C   0  0  0  0  0  0  0  0  0  0  0  0
    6.4660   -2.6850   23.1100 C   0  0  0  0  0  0  0  0  0  0  0  0
    6.3480   -4.1560   19.9800 C   0  0  0  0  0  0  0  0  0  0  0  0
    6.9020   -3.0090   19.1710 C   0  0  0  0  0  0  0  0  0  0  0  0
  1  9  1  0
  1 12  1  0
  1 15  1  0
  9  8  2  0
  9 10  1  0
 12 13  1  0
 15 14  1  0
  2  3  1  0
  3  4  1  0
  4  7  2  0
  4 11  1  0
  7  8  1  0
 11 10  2  0
  5 13  1  0
  5 14  1  0
  5 16  1  0
 16  6  2  0
 16 17  1  0
M  END
