
     RDKit          3D

 17 18  0  0  0  0  0  0  0  0999 V2000
    6.3120   -5.0010   21.6860 N   0  0  0  0  0  0  0  0  0  0  0  0
    7.5680   -3.4170   20.2520 C   0  0  0  0  0  0  0  0  0  0  0  0
    5.6370   -4.6530   19.5780 O   0  0  0  0  0  0  0  0  0  0  0  0
    6.4380   -4.4140   20.4750 C   0  0  0  0  0  0  0  0  0  0  0  0
    5.2520   -5.1970   24.2970 N   0  0  0  0  0  0  0  0  0  0  0  0
    3.7600   -6.2400   25.9640 O   0  0  0  0  0  0  0  0  0  0  0  0
    3.7740   -2.1280   25.9880 S   0  0  0  0  0  0  0  0  0  0  0  0
    7.1510   -4.7340   22.8550 C   0  0  0  0  0  0  0  0  0  0  0  0
    5.4970   -4.6400   26.6900 O   0  0  0  0  0  0  0  0  0  0  0  0
    6.3010   -4.2140   23.9830 C   0  0  0  0  0  0  0  0  0  0  0  0
    4.4100   -5.5100   23.1280 C   0  0  0  0  0  0  0  0  0  0  0  0
    5.2810   -5.9920   21.9950 C   0  0  0  0  0  0  0  0  0  0  0  0
    3.3440   -3.7430   25.6140 C   0  0  0  0  0  0  0  0  0  0  0  0
    2.0360   -3.8600   25.2140 C   0  0  0  0  0  0  0  0  0  0  0  0
    1.3830   -2.6020   25.2570 C   0  0  0  0  0  0  0  0  0  0  0  0
    2.1670   -1.6140   25.7490 C   0  0  0  0  0  0  0  0  0  0  0  0
    4.5040   -5.0420   25.7420 S   0  0  1  0  0  0  0  0  0  0  0  0
  1  4  1  0
  1  8  1  0
  1 12  1  0
  4  2  1  0
  4  3  2  0
  8 10  1  0
 12 11  1  0
  5 17  1  0
  5 10  1  0
  5 11  1  0
 17  6  2  0
 17  9  2  0
 17 13  1  6
  7 13  1  0
  7 16  1  0
 13 14  2  0
 16 15  2  0
 14 15  1  0
M  END
