
     RDKit          3D

 11 11  0  0  0  0  0  0  0  0999 V2000
    9.9800   -0.6200   22.5730 C   0  0  0  0  0  0  0  0  0  0  0  0
    9.0850   -0.0050   21.4990 C   0  0  0  0  0  0  0  0  0  0  0  0
    9.4100    1.0070   20.9810 O   0  0  0  0  0  0  0  0  0  0  0  0
    7.8410   -0.6530   21.1220 N   0  0  0  0  0  0  0  0  0  0  0  0
    6.9890   -0.0720   20.0960 C   0  0  0  0  0  0  0  0  0  0  0  0
    7.3650   -0.1420   18.7610 C   0  0  0  0  0  0  0  0  0  0  0  0
    6.6140    0.3720   17.8050 N   0  0  0  0  0  0  0  0  0  0  0  0
    5.4810    0.9730   18.0900 C   0  0  0  0  0  0  0  0  0  0  0  0
    5.0230    1.0990   19.3940 C   0  0  0  0  0  0  0  0  0  0  0  0
    5.7920    0.5590   20.4260 C   0  0  0  0  0  0  0  0  0  0  0  0
    5.3460    0.6680   21.8820 C   0  0  0  0  0  0  0  0  0  0  0  0
  1  2  1  0
  2  3  2  0
  2  4  1  0
  4  5  1  0
  5  6  2  0
  5 10  1  0
  6  7  1  0
 10  9  2  0
 10 11  1  0
  7  8  2  0
  8  9  1  0
M  END
