
     RDKit          3D

 16 17  0  0  0  0  0  0  0  0999 V2000
    8.9330    6.2410   22.6390 C   0  0  0  0  0  0  0  0  0  0  0  0
   10.2120    5.9460   23.4130 C   0  0  0  0  0  0  0  0  0  0  0  0
   10.2490    6.1420   24.5760 O   0  0  0  0  0  0  0  0  0  0  0  0
   11.3680    5.4140   22.7100 N   0  0  0  0  0  0  0  0  0  0  0  0
   12.6070    5.0870   23.3880 C   0  0  0  0  0  0  0  0  0  0  0  0
   12.9900    3.6590   22.9960 C   0  0  0  0  0  0  0  0  0  0  0  0
   12.0030    2.5740   23.4600 C   0  0  0  0  0  0  0  0  0  0  0  0
   10.8760    2.7520   24.2450 C   0  0  0  0  0  0  0  0  0  0  0  0
   10.2880    1.5750   24.4120 N   0  0  0  0  0  0  0  0  0  0  0  0
   10.9850    0.5990   23.7630 C   0  0  0  0  0  0  0  0  0  0  0  0
   10.7610   -0.7980   23.6450 C   0  0  0  0  0  0  0  0  0  0  0  0
   11.6470   -1.5780   22.9070 C   0  0  0  0  0  0  0  0  0  0  0  0
   12.7510   -0.9850   22.2860 C   0  0  0  0  0  0  0  0  0  0  0  0
   12.9710    0.3870   22.4090 C   0  0  0  0  0  0  0  0  0  0  0  0
   12.0700    1.1900   23.1590 C   0  0  0  0  0  0  0  0  0  0  0  0
   13.6230   -1.7420   21.5620 F   0  0  0  0  0  0  0  0  0  0  0  0
  1  2  1  0
  2  3  2  0
  2  4  1  0
  4  5  1  0
  5  6  1  0
  6  7  1  0
  7  8  2  0
  7 15  1  0
  8  9  1  0
 15 10  2  0
 15 14  1  0
  9 10  1  0
 10 11  1  0
 11 12  2  0
 12 13  1  0
 13 14  2  0
 13 16  1  0
M  END
