
     RDKit          3D

 11 11  0  0  0  0  0  0  0  0999 V2000
    7.3520   -3.1040   21.3910 N   0  0  0  0  0  0  0  0  0  0  0  0
    8.4020   -2.5530   19.3520 C   0  0  0  0  0  0  0  0  0  0  0  0
    6.2180   -3.5350   19.4610 O   0  0  0  0  0  0  0  0  0  0  0  0
    6.3070   -5.8570   21.7950 Cl  0  0  0  0  0  0  0  0  0  0  0  0
    7.2020   -3.1260   20.0560 C   0  0  0  0  0  0  0  0  0  0  0  0
    4.8670   -4.6280   23.5740 N   0  0  0  0  0  0  0  0  0  0  0  0
    6.3530   -3.2080   22.3810 C   0  0  0  0  0  0  0  0  0  0  0  0
    5.9180   -2.1050   23.1120 C   0  0  0  0  0  0  0  0  0  0  0  0
    4.9470   -2.2910   24.0720 C   0  0  0  0  0  0  0  0  0  0  0  0
    4.4540   -3.5630   24.2670 C   0  0  0  0  0  0  0  0  0  0  0  0
    5.7960   -4.4480   22.6590 C   0  0  0  0  0  0  0  0  0  0  0  0
  1  5  1  0
  1  7  1  0
  5  2  1  0
  5  3  2  0
  7  8  2  0
  7 11  1  0
  4 11  1  0
 11  6  2  0
  6 10  1  0
 10  9  2  0
  8  9  1  0
M  END
