@<TRIPOS>MOLECULE
SPE_0110
37 39 1 0 0
SMALL
NO_CHARGES


@<TRIPOS>ATOM
      1 O1          9.3210    1.2610   20.9760 O.2       1 T10   -0.5701
      2 C1          8.7800    0.5540   21.8150 C.2       1 T10    0.6721
      3 C2          9.3830    0.1520   23.1380 C.3       1 T10   -0.1504
      4 C3         10.9050    0.0360   23.0170 C.3       1 T10   -0.0617
      5 C4         11.2780   -1.0860   22.0470 C.3       1 T10   -0.0754
      6 C5         12.4970   -1.8810   22.5050 C.3       1 T10   -0.0754
      7 C6         13.5630   -1.0050   23.1480 C.3       1 T10   -0.0774
      8 C7         13.0200   -0.1640   24.3020 C.3       1 T10   -0.0754
      9 C8         11.5000   -0.2280   24.4000 C.3       1 T10   -0.0754
     10 N1          7.4660    0.1100   21.5910 N.am      1 T10   -0.4821
     11 C9          6.7920    0.4310   20.3980 C.2       1 T10    0.0020
     12 N5          5.5580    1.0950   20.5210 N.ar      1 T10   -0.0003
     13 C11         4.7720    1.3690   19.3680 C.ar      1 T10   -0.1376
     14 C12         5.3500    1.0570   18.0910 C.2       1 T10    0.4342
     15 N2          6.5270    0.4840   17.9750 N.2       1 T10   -0.6300
     16 C13         7.2350    0.1500   19.1240 C.2       1 T10    0.3342
     17 H22         8.9610   -0.8020   23.5330 H         1 T10    0.0767
     18 H23         9.0990    0.9370   23.8770 H         1 T10    0.0767
     19 H3         11.3170    1.0060   22.6350 H         1 T10    0.0677
     20 H42        10.4360   -1.7930   21.8840 H         1 T10    0.0397
     21 H43        11.4470   -0.6570   21.0400 H         1 T10    0.0397
     22 H52        12.9380   -2.4210   21.6410 H         1 T10    0.0430
     23 H53        12.1920   -2.6820   23.2120 H         1 T10    0.0430
     24 H62        14.3970   -1.6460   23.5070 H         1 T10    0.0437
     25 H63        14.0230   -0.3520   22.3800 H         1 T10    0.0437
     26 H72        13.4820   -0.4860   25.2590 H         1 T10    0.0430
     27 H73        13.3430    0.8910   24.1800 H         1 T10    0.0430
     28 H82        11.1350    0.5140   25.1390 H         1 T10    0.0397
     29 H83        11.1590   -1.2070   24.7960 H         1 T10    0.0397
     30 H1          6.9550   -0.4480   22.2840 H         1 T10    0.3265
     31 C15         4.8250    1.5060   21.6340 C.ar      1 T10   -0.2341
     32 N3          3.5830    1.9190   19.7350 N.ar      1 T10   -0.2646
     33 H12         4.7960    1.3220   17.1810 H         1 T10    0.0541
     34 CL1         8.5518   -0.5786   18.8543 Cl        1 T10    0.0711
     35 C14         3.6170    2.0010   21.1230 C.ar      1 T10    0.0166
     36 H14         2.7760    2.4180   21.6890 H         1 T10    0.1850
     37 H15         5.1710    1.4210   22.6690 H         1 T10    0.1780
@<TRIPOS>BOND
     1    1    2 2
     2    2    3 1
     3    2   10 am
     4    3    4 1
     5    3   17 1
     6    3   18 1
     7    4    5 1
     8    4    9 1
     9    4   19 1
    10    5    6 1
    11    5   20 1
    12    5   21 1
    13    6    7 1
    14    6   22 1
    15    6   23 1
    16    7    8 1
    17    7   24 1
    18    7   25 1
    19    8    9 1
    20    8   26 1
    21    8   27 1
    22    9   28 1
    23    9   29 1
    24   10   11 1
    25   10   30 1
    26   11   12 1
    27   11   16 2
    28   12   13 ar
    29   12   31 ar
    30   13   14 1
    31   13   32 ar
    32   14   15 2
    33   14   33 1
    34   15   16 2
    35   16   34 1
    36   31   35 ar
    37   31   37 1
    38   32   35 ar
    39   35   36 1
@<TRIPOS>SUBSTRUCTURE
     1 T10     1 RESIDUE           4 A     T10     0 ROOT
