@<TRIPOS>MOLECULE
SPE_0112
37 39 1 0 0
SMALL
NO_CHARGES


@<TRIPOS>ATOM
      1 O1          9.3300    1.2210   20.9940 O.2       1 T12   -0.5791
      2 C1          8.7320    0.5460   21.8330 C.2       1 T12    0.6661
      3 C2          9.3280    0.0880   23.1450 C.3       1 T12   -0.1534
      4 C3         10.8560    0.0240   23.0460 C.3       1 T12   -0.0617
      5 C4         11.2810   -1.0510   22.0410 C.3       1 T12   -0.0754
      6 C5         12.4930   -1.8520   22.5060 C.3       1 T12   -0.0749
      7 C6         13.5410   -0.9870   23.1870 C.3       1 T12   -0.0774
      8 C7         12.9680   -0.1600   24.3350 C.3       1 T12   -0.0749
      9 C8         11.4500   -0.2610   24.4250 C.3       1 T12   -0.0754
     10 N1          7.3910    0.2140   21.6130 N.am      1 T12   -0.4631
     11 C9          6.7660    0.5140   20.3900 C.ar      1 T12    0.0263
     12 C10         5.5150    1.1470   20.3580 C.ar      1 T12   -0.2429
     13 C11         4.9460    1.4670   19.0990 C.ar      1 T12   -0.1435
     14 C12         5.6190    1.1320   17.9070 C.ar      1 T12    0.3642
     15 N2          6.7970    0.5100   17.9530 N.ar      1 T12   -0.6170
     16 C13         7.3550    0.2030   19.1610 C.ar      1 T12    0.3292
     17 H22         8.9210   -0.8980   23.4640 H         1 T12    0.0747
     18 H23         9.0080    0.8020   23.9360 H         1 T12    0.0747
     19 H3         11.2420    1.0190   22.7040 H         1 T12    0.0677
     20 H42        10.4550   -1.7600   21.8130 H         1 T12    0.0397
     21 H43        11.4770   -0.5740   21.0620 H         1 T12    0.0397
     22 H52        12.9520   -2.3720   21.6390 H         1 T12    0.0422
     23 H53        12.1760   -2.6700   23.1870 H         1 T12    0.0422
     24 H62        14.3640   -1.6350   23.5590 H         1 T12    0.0427
     25 H63        14.0250   -0.3260   22.4410 H         1 T12    0.0427
     26 H72        13.4340   -0.4690   25.2930 H         1 T12    0.0422
     27 H73        13.2610    0.9060   24.2130 H         1 T12    0.0422
     28 H82        11.0600    0.4510   25.1810 H         1 T12    0.0397
     29 H83        11.1300   -1.2560   24.7970 H         1 T12    0.0397
     30 H1          6.8130   -0.1950   22.3510 H         1 T12    0.3225
     31 C15         4.5600    1.6010   21.3350 C.ar      1 T12    0.3358
     32 N3          3.7130    2.0560   19.3570 N.ar      1 T12   -0.0131
     33 H12         5.2240    1.3970   16.9240 H         1 T12    0.0291
     34 CL1         8.6947   -0.5272   19.0638 Cl        1 T12    0.0651
     35 N6          3.5030    2.1550   20.7040 N.ar      1 T12   -0.4981
     36 HN3         3.1390    2.5740   18.6890 H         1 T12    0.3307
     37 H15         4.6300    1.5200   22.4250 H         1 T12    0.0508
@<TRIPOS>BOND
     1    1    2 2
     2    2    3 1
     3    2   10 am
     4    3    4 1
     5    3   17 1
     6    3   18 1
     7    4    5 1
     8    4    9 1
     9    4   19 1
    10    5    6 1
    11    5   20 1
    12    5   21 1
    13    6    7 1
    14    6   22 1
    15    6   23 1
    16    7    8 1
    17    7   24 1
    18    7   25 1
    19    8    9 1
    20    8   26 1
    21    8   27 1
    22    9   28 1
    23    9   29 1
    24   10   11 1
    25   10   30 1
    26   11   12 ar
    27   11   16 ar
    28   12   13 ar
    29   12   31 ar
    30   13   14 ar
    31   13   32 ar
    32   14   15 ar
    33   14   33 1
    34   15   16 ar
    35   16   34 1
    36   31   35 ar
    37   31   37 1
    38   32   35 ar
    39   32   36 1
@<TRIPOS>SUBSTRUCTURE
     1 T12     1 RESIDUE           4 A     T12     0 ROOT
