@<TRIPOS>MOLECULE
SPE_0101
30 32 1 0 0
SMALL
NO_CHARGES


@<TRIPOS>ATOM
      1 O1          8.8490    0.8660   20.7180 O.2       1 T01   -0.6001
      2 C1          8.3560   -0.0940   21.3340 C.2       1 T01    0.7731
      3 N1          9.0640   -0.8090   22.2970 N.pl3     1 T01   -0.4601
      4 C2         10.3570   -0.3280   22.6470 C.ar      1 T01    0.0566
      5 C3         10.4480    0.7790   23.4980 C.ar      1 T01   -0.1545
      6 C4         11.7030    1.2980   23.7940 C.ar      1 T01   -0.1085
      7 C5         12.8460    0.7120   23.2600 C.ar      1 T01   -0.1470
      8 C6         12.7400   -0.4110   22.4520 C.ar      1 T01   -0.1085
      9 C7         11.4980   -0.9420   22.1310 C.ar      1 T01   -0.1545
     10 N2          7.0220   -0.4850   21.1120 N.pl3     1 T01   -0.4601
     11 C8          6.3460    0.1000   20.0230 C.ar      1 T01    0.0243
     12 C9          5.1490    0.8160   20.2150 C.ar      1 T01   -0.2399
     13 C10         4.5460    1.4320   19.0870 C.ar      1 T01   -0.1455
     14 C11         5.1220    1.2930   17.7980 C.ar      1 T01    0.3712
     15 N3          6.2350    0.5870   17.6370 N.ar      1 T01   -0.6190
     16 C12         6.8360    0.0080   18.7280 C.ar      1 T01    0.3432
     17 H1          8.7510   -1.6990   22.6750 H         1 T01    0.3075
     18 H3          9.5500    1.2420   23.9170 H         1 T01    0.1485
     19 H4         11.7810    2.1800   24.4380 H         1 T01    0.1350
     20 H5         13.8280    1.1550   23.4530 H         1 T01    0.1350
     21 H6         13.6430   -0.8750   22.0470 H         1 T01    0.1350
     22 H7         11.4170   -1.8110   21.4720 H         1 T01    0.1485
     23 H2          6.4830   -1.0240   21.7840 H         1 T01    0.3145
     24 N4          3.3910    2.0560   19.5490 N.ar      1 T01   -0.0111
     25 H11         4.6950    1.7900   16.9230 H         1 T01    0.0301
     26 CL1         8.1202   -0.7520   18.3952 Cl        1 T01    0.0651
     27 C14         4.3040    1.1350   21.3260 C.ar      1 T01    0.3338
     28 N7          3.2700    1.8940   20.8950 N.ar      1 T01   -0.4951
     29 HN4         2.8290    2.7470   19.0630 H         1 T01    0.3317
     30 H14         4.4340    0.8470   22.3770 H         1 T01    0.0508
@<TRIPOS>BOND
     1    1    2 2
     2    2    3 2
     3    2   10 2
     4    3    4 1
     5    3   17 1
     6    4    5 ar
     7    4    9 ar
     8    5    6 ar
     9    5   18 1
    10    6    7 ar
    11    6   19 1
    12    7    8 ar
    13    7   20 1
    14    8    9 ar
    15    8   21 1
    16    9   22 1
    17   10   11 1
    18   10   23 1
    19   11   12 ar
    20   11   16 ar
    21   12   13 ar
    22   12   27 ar
    23   13   14 ar
    24   13   24 ar
    25   14   15 ar
    26   14   25 1
    27   15   16 ar
    28   16   26 1
    29   24   28 ar
    30   24   29 1
    31   27   28 ar
    32   27   30 1
@<TRIPOS>SUBSTRUCTURE
     1 T01     1 RESIDUE           4 A     T01     0 ROOT
