@<TRIPOS>MOLECULE
SPE_0098
30 32 1 0 0
SMALL
NO_CHARGES


@<TRIPOS>ATOM
      1 O1          8.8140    0.9620   20.6860 O.2       1 S98   -0.6021
      2 C1          8.3600   -0.0040   21.3140 C.2       1 S98    0.7691
      3 N1          9.1050   -0.7160   22.2480 N.pl3     1 S98   -0.4571
      4 C2         10.4180   -0.2450   22.5610 C.ar      1 S98    0.0546
      5 C3         10.5500    0.9250   23.3190 C.ar      1 S98   -0.1535
      6 C4         11.8160    1.3970   23.6130 C.ar      1 S98   -0.1085
      7 C5         12.9410    0.7180   23.1590 C.ar      1 S98   -0.1460
      8 C6         12.7960   -0.4620   22.4280 C.ar      1 S98   -0.1085
      9 C7         11.5390   -0.9490   22.1190 C.ar      1 S98   -0.1535
     10 N2          7.0290   -0.4280   21.1220 N.pl3     1 S98   -0.4511
     11 C8          6.3140    0.1200   20.0380 C.2       1 S98    0.0416
     12 C9          5.0890    0.8060   20.3070 C.ar      1 S98   -0.0743
     13 N5          4.3870    1.3520   19.1980 N.ar      1 S98    0.0606
     14 C11         4.9200    1.2480   17.8960 C.2       1 S98    0.2334
     15 N3          6.0500    0.6040   17.6750 N.2       1 S98   -0.3530
     16 C12         6.7490    0.0400   18.7370 C.2       1 S98    0.2569
     17 H1          8.7930   -1.5950   22.6550 H         1 S98    0.3085
     18 H3          9.6630    1.4660   23.6720 H         1 S98    0.1485
     19 H4         11.9240    2.3180   24.1970 H         1 S98    0.1350
     20 H5         13.9340    1.1250   23.3410 H         1 S98    0.1350
     21 H6         13.6860   -0.9960   22.0820 H         1 S98    0.1350
     22 H7         11.4290   -1.8670   21.5240 H         1 S98    0.1485
     23 H2          6.5110   -0.9670   21.8170 H         1 S98    0.3165
     24 N4          3.2480    1.9960   19.6070 N.ar      1 S98   -0.2528
     25 H11         4.3800    1.7420   17.0680 H         1 S98    0.0741
     26 CL1         8.0453   -0.6615   18.3308 Cl        1 S98    0.0721
     27 C14         4.3480    1.1170   21.4370 C.ar      1 S98   -0.2520
     28 H14         4.5720    0.8740   22.4710 H         1 S98    0.1640
     29 C13         3.2210    1.8560   20.9630 C.ar      1 S98    0.0022
     30 H13         2.4070    2.2840   21.5590 H         1 S98    0.0568
@<TRIPOS>BOND
     1    1    2 2
     2    2    3 2
     3    2   10 2
     4    3    4 1
     5    3   17 1
     6    4    5 ar
     7    4    9 ar
     8    5    6 ar
     9    5   18 1
    10    6    7 ar
    11    6   19 1
    12    7    8 ar
    13    7   20 1
    14    8    9 ar
    15    8   21 1
    16    9   22 1
    17   10   11 2
    18   10   23 1
    19   11   12 1
    20   11   16 2
    21   12   13 ar
    22   12   27 ar
    23   13   14 1
    24   13   24 ar
    25   14   15 2
    26   14   25 1
    27   15   16 2
    28   16   26 1
    29   24   29 ar
    30   27   28 1
    31   27   29 ar
    32   29   30 1
@<TRIPOS>SUBSTRUCTURE
     1 S98     1 RESIDUE           4 A     S98     0 ROOT
