@<TRIPOS>MOLECULE
SPE_0109
37 39 1 0 0
SMALL
NO_CHARGES


@<TRIPOS>ATOM
      1 O1          9.3560    1.2280   20.9590 O.2       1 T09   -0.5811
      2 C1          8.7930    0.5450   21.8140 C.2       1 T09    0.6661
      3 C2          9.4030    0.1310   23.1310 C.3       1 T09   -0.1514
      4 C3         10.9270    0.0260   23.0150 C.3       1 T09   -0.0617
      5 C4         11.3150   -1.0900   22.0420 C.3       1 T09   -0.0754
      6 C5         12.5240   -1.8910   22.5140 C.3       1 T09   -0.0749
      7 C6         13.5870   -1.0210   23.1630 C.3       1 T09   -0.0774
      8 C7         13.0380   -0.1720   24.3070 C.3       1 T09   -0.0749
      9 C8         11.5200   -0.2350   24.4000 C.3       1 T09   -0.0754
     10 N1          7.4630    0.1580   21.6130 N.am      1 T09   -0.4591
     11 C9          6.7760    0.4770   20.4300 C.2       1 T09   -0.0157
     12 C10         5.4900    1.0940   20.5580 C.ar      1 T09   -0.0763
     13 N4          4.7610    1.3540   19.3650 N.ar      1 T09    0.0472
     14 C12         5.3290    1.0590   18.1110 C.2       1 T09    0.5124
     15 N2          6.5250    0.5180   18.0140 N.2       1 T09   -0.6560
     16 C13         7.2460    0.2160   19.1650 C.2       1 T09    0.3442
     17 H22         8.9830   -0.8290   23.5090 H         1 T09    0.0757
     18 H23         9.1120    0.8910   23.8910 H         1 T09    0.0757
     19 H3         11.3330    1.0000   22.6380 H         1 T09    0.0667
     20 H42        10.4750   -1.7930   21.8580 H         1 T09    0.0399
     21 H43        11.4990   -0.6550   21.0410 H         1 T09    0.0399
     22 H52        12.9700   -2.4350   21.6560 H         1 T09    0.0424
     23 H53        12.2070   -2.6890   23.2190 H         1 T09    0.0424
     24 H62        14.4130   -1.6650   23.5310 H         1 T09    0.0432
     25 H63        14.0610   -0.3750   22.3980 H         1 T09    0.0432
     26 H72        13.4950   -0.4860   25.2680 H         1 T09    0.0424
     27 H73        13.3580    0.8840   24.1780 H         1 T09    0.0424
     28 H82        11.1470    0.5040   25.1380 H         1 T09    0.0399
     29 H83        11.1790   -1.2140   24.7950 H         1 T09    0.0399
     30 H1          6.9190   -0.2950   22.3520 H         1 T09    0.3265
     31 C15         4.6940    1.5340   21.6080 C.ar      1 T09   -0.3376
     32 N3          3.5500    1.9310   19.6400 N.ar      1 T09   -0.5511
     33 H12         4.7510    1.3100   17.2070 H         1 T09    0.0731
     34 CL1         8.5977   -0.4446   18.8930 Cl        1 T09    0.0731
     35 C14         3.5040    2.0390   21.0000 C.ar      1 T09    0.3735
     36 H14         2.6310    2.4690   21.5080 H         1 T09    0.0558
     37 H15         4.9070    1.4890   22.6730 H         1 T09    0.1640
@<TRIPOS>BOND
     1    1    2 2
     2    2    3 1
     3    2   10 am
     4    3    4 1
     5    3   17 1
     6    3   18 1
     7    4    5 1
     8    4    9 1
     9    4   19 1
    10    5    6 1
    11    5   20 1
    12    5   21 1
    13    6    7 1
    14    6   22 1
    15    6   23 1
    16    7    8 1
    17    7   24 1
    18    7   25 1
    19    8    9 1
    20    8   26 1
    21    8   27 1
    22    9   28 1
    23    9   29 1
    24   10   11 1
    25   10   30 1
    26   11   12 1
    27   11   16 2
    28   12   13 ar
    29   12   31 ar
    30   13   14 1
    31   13   32 ar
    32   14   15 2
    33   14   33 1
    34   15   16 2
    35   16   34 1
    36   31   35 ar
    37   31   37 1
    38   32   35 ar
    39   35   36 1
@<TRIPOS>SUBSTRUCTURE
     1 T09     1 RESIDUE           4 A     T09     0 ROOT
