@<TRIPOS>MOLECULE
SPE_0100
30 32 1 0 0
SMALL
NO_CHARGES


@<TRIPOS>ATOM
      1 O1          8.7240    0.9510   20.6900 O.2       1 T00   -0.6081
      2 C1          8.2390    0.0030   21.3300 C.2       1 T00    0.7721
      3 N1          8.9640   -0.6980   22.2860 N.pl3     1 T00   -0.4621
      4 C2         10.2810   -0.2430   22.5960 C.ar      1 T00    0.0606
      5 C3         10.4290    0.9180   23.3580 C.ar      1 T00   -0.1570
      6 C4         11.7080    1.3840   23.6420 C.ar      1 T00   -0.1085
      7 C5         12.8200    0.6950   23.1700 C.ar      1 T00   -0.1500
      8 C6         12.6600   -0.4710   22.4270 C.ar      1 T00   -0.1085
      9 C7         11.3910   -0.9510   22.1310 C.ar      1 T00   -0.1570
     10 N2          6.9070   -0.4230   21.1100 N.pl3     1 T00   -0.4531
     11 C8          6.2310    0.1580   20.0150 C.ar      1 T00    0.0173
     12 C9          5.0750    0.9380   20.1840 C.ar      1 T00    0.0374
     13 C10         4.4980    1.5620   19.0430 C.ar      1 T00   -0.1725
     14 C11         5.0550    1.3570   17.7670 C.ar      1 T00    0.3762
     15 N3          6.1290    0.5780   17.6160 N.ar      1 T00   -0.6280
     16 C12         6.7070    0.0010   18.7150 C.ar      1 T00    0.3522
     17 H1          8.6460   -1.5810   22.6810 H         1 T00    0.3105
     18 H3          9.5540    1.4640   23.7260 H         1 T00    0.1490
     19 H4         11.8300    2.3000   24.2270 H         1 T00    0.1340
     20 H5         13.8220    1.0860   23.3580 H         1 T00    0.1330
     21 H6         13.5380   -1.0060   22.0560 H         1 T00    0.1340
     22 H7         11.2660   -1.8600   21.5320 H         1 T00    0.1490
     23 H2          6.3400   -0.7890   21.8760 H         1 T00    0.3295
     24 N4          3.4020    2.2890   19.5090 N.ar      1 T00   -0.2763
     25 H11         4.6530    1.8480   16.8730 H         1 T00    0.0261
     26 CL1         7.9511   -0.8335   18.4095 Cl        1 T00    0.0651
     27 N8          4.3330    1.2640   21.3310 N.ar      1 T00   -0.5821
     28 C13         3.3500    2.0910   20.8960 C.ar      1 T00    0.4297
     29 H13         2.5770    2.5530   21.5460 H         1 T00    0.0728
     30 HN4         2.8790    2.9630   18.9580 H         1 T00    0.3117
@<TRIPOS>BOND
     1    1    2 2
     2    2    3 2
     3    2   10 2
     4    3    4 1
     5    3   17 1
     6    4    5 ar
     7    4    9 ar
     8    5    6 ar
     9    5   18 1
    10    6    7 ar
    11    6   19 1
    12    7    8 ar
    13    7   20 1
    14    8    9 ar
    15    8   21 1
    16    9   22 1
    17   10   11 1
    18   10   23 1
    19   11   12 ar
    20   11   16 ar
    21   12   13 ar
    22   12   27 ar
    23   13   14 ar
    24   13   24 ar
    25   14   15 ar
    26   14   25 1
    27   15   16 ar
    28   16   26 1
    29   24   28 ar
    30   24   30 1
    31   27   28 ar
    32   28   29 1
@<TRIPOS>SUBSTRUCTURE
     1 T00     1 RESIDUE           4 A     T00     0 ROOT
