@<TRIPOS>MOLECULE
SPE_0113
38 40 1 0 0
SMALL
NO_CHARGES


@<TRIPOS>ATOM
      1 O1          9.4170    1.2210   20.9590 O.2       1 T13   -0.5851
      2 C1          8.8350    0.5860   21.8420 C.2       1 T13    0.6641
      3 C2          9.4380    0.1490   23.1490 C.3       1 T13   -0.1514
      4 C3         10.9680    0.0420   23.0420 C.3       1 T13   -0.0617
      5 C4         11.3660   -1.0480   22.0430 C.3       1 T13   -0.0759
      6 C5         12.5570   -1.8680   22.5170 C.3       1 T13   -0.0749
      7 C6         13.6240   -1.0200   23.1900 C.3       1 T13   -0.0774
      8 C7         13.0660   -0.1740   24.3390 C.3       1 T13   -0.0749
      9 C8         11.5450   -0.2480   24.4240 C.3       1 T13   -0.0759
     10 N1          7.4900    0.2580   21.6720 N.am      1 T13   -0.4571
     11 C9          6.7770    0.5850   20.4980 C.ar      1 T13   -0.0660
     12 C10         5.5240    1.2740   20.5940 C.ar      1 T13    0.2663
     13 C11         4.7550    1.4210   19.4260 C.ar      1 T13    0.1870
     14 C12         5.3010    0.9880   18.1840 C.ar      1 T13    0.3469
     15 N2          6.5080    0.4410   18.0910 N.ar      1 T13   -0.6290
     16 C13         7.2270    0.2190   19.2350 C.ar      1 T13    0.3512
     17 H22         9.0150   -0.8270   23.5000 H         1 T13    0.0747
     18 H23         9.1370    0.8660   23.9400 H         1 T13    0.0747
     19 H3         11.3630    1.0310   22.6890 H         1 T13    0.0657
     20 H42        10.5220   -1.7470   21.8240 H         1 T13    0.0415
     21 H43        11.5650   -0.5880   21.0570 H         1 T13    0.0415
     22 H52        13.0070   -2.4090   21.6500 H         1 T13    0.0417
     23 H53        12.2270   -2.6800   23.1960 H         1 T13    0.0417
     24 H62        14.4380   -1.6740   23.5640 H         1 T13    0.0422
     25 H63        14.1140   -0.3740   22.4420 H         1 T13    0.0422
     26 H72        13.5330   -0.4860   25.2910 H         1 T13    0.0417
     27 H73        13.3820    0.8850   24.2130 H         1 T13    0.0417
     28 H82        11.1650    0.4720   25.1800 H         1 T13    0.0415
     29 H83        11.2060   -1.2360   24.8000 H         1 T13    0.0415
     30 H1          6.9180   -0.0630   22.4700 H         1 T13    0.3395
     31 N6          5.0960    1.7610   21.8190 N.ar      1 T13   -0.6440
     32 N3          3.4740    1.9620   19.4900 N.ar      1 T13   -0.6040
     33 H12         4.7330    1.1170   17.2510 H         1 T13    0.0441
     34 CL1         8.5610   -0.4985   19.0277 Cl        1 T13    0.0711
     35 C14         3.0620    2.3920   20.6650 C.ar      1 T13    0.2929
     36 C15         3.9000    2.3220   21.8500 C.ar      1 T13    0.3069
     37 H142        2.0290    2.7950   20.7180 H         1 T13    0.0391
     38 H11         3.5330    2.7080   22.8310 H         1 T13    0.0361
@<TRIPOS>BOND
     1    1    2 2
     2    2    3 1
     3    2   10 am
     4    3    4 1
     5    3   17 1
     6    3   18 1
     7    4    5 1
     8    4    9 1
     9    4   19 1
    10    5    6 1
    11    5   20 1
    12    5   21 1
    13    6    7 1
    14    6   22 1
    15    6   23 1
    16    7    8 1
    17    7   24 1
    18    7   25 1
    19    8    9 1
    20    8   26 1
    21    8   27 1
    22    9   28 1
    23    9   29 1
    24   10   11 1
    25   10   30 1
    26   11   12 ar
    27   11   16 ar
    28   12   13 ar
    29   12   31 ar
    30   13   14 ar
    31   13   32 ar
    32   14   15 ar
    33   14   33 1
    34   15   16 ar
    35   16   34 1
    36   31   36 ar
    37   32   35 ar
    38   35   36 ar
    39   35   37 1
    40   36   38 1
@<TRIPOS>SUBSTRUCTURE
     1 T13     1 RESIDUE           4 A     T13     0 ROOT
