@<TRIPOS>MOLECULE
SPE_0099
30 32 1 0 0
SMALL
NO_CHARGES


@<TRIPOS>ATOM
      1 O1          8.7050    1.0880   20.8670 O.2       1 S99   -0.5891
      2 C1          8.3450    0.0120   21.3720 C.2       1 S99    0.7621
      3 N1          9.1180   -0.7130   22.2730 N.pl3     1 S99   -0.4531
      4 C2         10.4150   -0.2120   22.5920 C.ar      1 S99    0.0486
      5 C3         10.5390    0.9630   23.3340 C.ar      1 S99   -0.1515
      6 C4         11.8120    1.4390   23.6250 C.ar      1 S99   -0.1085
      7 C5         12.9340    0.7540   23.1730 C.ar      1 S99   -0.1440
      8 C6         12.7930   -0.4230   22.4460 C.ar      1 S99   -0.1085
      9 C7         11.5340   -0.9190   22.1460 C.ar      1 S99   -0.1515
     10 N2          7.0740   -0.5280   21.0700 N.am      1 S99   -0.4601
     11 C8          6.3480    0.0440   20.0090 C.2       1 S99   -0.0220
     12 N6          5.1880    0.7790   20.3110 N.ar      1 S99    0.0027
     13 C10         4.4200    1.3430   19.2560 C.ar      1 S99   -0.1456
     14 C11         4.9160    1.2020   17.9130 C.2       1 S99    0.4492
     15 N3          6.0050    0.5150   17.6400 N.2       1 S99   -0.6380
     16 C12         6.7110   -0.0670   18.6880 C.2       1 S99    0.3742
     17 H1          8.9010   -1.6730   22.5350 H         1 S99    0.3085
     18 H3          9.6540    1.5090   23.6830 H         1 S99    0.1490
     19 H4         11.9250    2.3650   24.2000 H         1 S99    0.1365
     20 H5         13.9340    1.1570   23.3660 H         1 S99    0.1360
     21 H6         13.6790   -0.9540   22.0840 H         1 S99    0.1365
     22 H7         11.4170   -1.8410   21.5670 H         1 S99    0.1490
     23 H2          6.6940   -1.3680   21.5130 H         1 S99    0.3115
     24 N4          3.2930    1.9150   19.7590 N.ar      1 S99   -0.2616
     25 H11         4.3790    1.6910   17.0930 H         1 S99    0.0551
     26 CL1         7.9454   -0.8660   18.2692 Cl        1 S99    0.0651
     27 C14         4.5030    1.0140   21.5020 C.ar      1 S99   -0.2341
     28 H14         4.8460    0.6960   22.4910 H         1 S99    0.1790
     29 C13         3.3470    1.7170   21.1340 C.ar      1 S99    0.0176
     30 H13         2.5530    2.0920   21.7920 H         1 S99    0.1860
@<TRIPOS>BOND
     1    1    2 2
     2    2    3 1
     3    2   10 am
     4    3    4 1
     5    3   17 1
     6    4    5 ar
     7    4    9 ar
     8    5    6 ar
     9    5   18 1
    10    6    7 ar
    11    6   19 1
    12    7    8 ar
    13    7   20 1
    14    8    9 ar
    15    8   21 1
    16    9   22 1
    17   10   11 1
    18   10   23 1
    19   11   12 1
    20   11   16 2
    21   12   13 ar
    22   12   27 ar
    23   13   14 1
    24   13   24 ar
    25   14   15 2
    26   14   25 1
    27   15   16 2
    28   16   26 1
    29   24   29 ar
    30   27   28 1
    31   27   29 ar
    32   29   30 1
@<TRIPOS>SUBSTRUCTURE
     1 S99     1 RESIDUE           4 A     S99     0 ROOT
