@<TRIPOS>MOLECULE
Cpptraj Generated mol2 file.
   46    47     1     0     0
SMALL
USER_CHARGES


@<TRIPOS>ATOM
      1 O1          8.6196    1.0238   20.7181 o          1 T17     -0.596100
      2 C1          8.1018    0.1640   21.4336 c          1 T17      0.646100
      3 N1          8.7791   -0.4375   22.4766 ns         1 T17     -0.457100
      4 C2         10.1503   -0.1366   22.6814 ca         1 T17     -0.147700
      5 C3         10.5189    1.0831   23.3431 ca         1 T17      0.697200
      6 N8         11.8480    1.4734   23.4295 nb         1 T17     -0.731000
      7 C5         12.7691    0.6492   22.9081 ca         1 T17      0.485200
      8 C6         12.4633   -0.5715   22.2877 ca         1 T17     -0.196300
      9 C7         11.1266   -0.9690   22.1702 ca         1 T17     -0.042000
     10 C2L         6.6179   -0.2445   21.3033 c3         1 T17      0.087000
     11 C8          6.0323    0.3962   20.0773 ca         1 T17     -0.203600
     12 C9          4.9000    1.1888   20.1754 ca         1 T17     -0.128000
     13 C10         4.3528    1.7544   19.0081 ca         1 T17      0.038300
     14 C11         4.9785    1.4764   17.7702 ca         1 T17      0.367200
     15 N3          6.0900    0.7302   17.6488 nb         1 T17     -0.642000
     16 C12         6.6009    0.2212   18.8043 ca         1 T17      0.548500
     17 H1          8.3786   -1.2031   23.0202 hn         1 T17      0.326500
     18 N9          9.5669    1.8729   23.9136 nu         1 T17     -0.828900
     19 H5         13.8056    1.0107   23.0049 h4         1 T17      0.034100
     20 C16        13.4366   -1.3861   21.6732 cg         1 T17      0.247800
     21 H7         10.8705   -1.9156   21.6702 ha         1 T17      0.151000
     22 H9          4.4335    1.3850   21.1536 ha         1 T17      0.160000
     23 N4          3.1767    2.4830   19.0656 nv         1 T17     -0.818200
     24 H11         4.6057    1.8995   16.8306 h4         1 T17      0.036100
     25 F1          7.7242   -0.4632   18.6385 f          1 T17     -0.242200
     26 H41         2.9893    2.9927   19.9198 hn         1 T17      0.407800
     27 H42         2.8985    2.9715   18.2263 hn         1 T17      0.407800
     28 N7         14.1777   -2.0511   21.0858 n1         1 T17     -0.372800
     29 C17         9.7994    3.2866   24.2586 c3         1 T17      0.198800
     30 H91         8.6097    1.5239   23.9752 hn         1 T17      0.440800
     31 C18         8.5864    3.8255   25.0160 c3         1 T17     -0.110100
     32 H172       10.7379    3.4015   24.8474 h1         1 T17      0.054200
     33 H171        9.9684    3.8722   23.3235 h1         1 T17      0.054200
     34 H181        8.6685    4.9111   25.1764 hc         1 T17      0.046033
     35 H182        8.4707    3.3589   26.0045 hc         1 T17      0.046033
     36 H183        7.6384    3.6744   24.4757 hc         1 T17      0.046033
     37 N10         6.5170   -1.7007   21.2418 ns         1 T17     -0.572900
     38 H2L1        6.0980    0.1659   22.2243 h1         1 T17      0.136700
     39 C19         5.7018   -2.4070   22.1217 c          1 T17      0.665300
     40 H101        7.0185   -2.1850   20.4966 hn         1 T17      0.319500
     41 C20         5.7712   -3.8817   22.0837 ce         1 T17     -0.216200
     42 O2          4.9520   -1.8134   22.9007 o          1 T17     -0.587100
     43 C21         6.9100   -4.5538   21.9562 c2         1 T17     -0.164000
     44 H201        4.8240   -4.3933   22.2956 ha         1 T17      0.160000
     45 H211        7.8852   -4.0918   21.8331 ha         1 T17      0.125000
     46 H212        6.9464   -5.6417   21.9793 ha         1 T17      0.125000
@<TRIPOS>BOND
    1     2     1 1
    2     3     2 1
    3     4     3 1
    4     5     4 1
    5     6     5 1
    6     7     6 1
    7     8     7 1
    8     9     4 1
    9     9     8 1
   10    10     2 1
   11    11    10 1
   12    12    11 1
   13    13    12 1
   14    14    13 1
   15    15    14 1
   16    16    11 1
   17    16    15 1
   18    18     5 1
   19    20     8 1
   20    23    13 1
   21    25    16 1
   22    28    20 1
   23    29    18 1
   24    31    29 1
   25    37    10 1
   26    39    37 1
   27    41    39 1
   28    42    39 1
   29    43    41 1
   30    17     3 1
   31    19     7 1
   32    21     9 1
   33    22    12 1
   34    24    14 1
   35    26    23 1
   36    27    23 1
   37    30    18 1
   38    32    29 1
   39    33    29 1
   40    34    31 1
   41    35    31 1
   42    36    31 1
   43    38    10 1
   44    40    37 1
   45    44    41 1
   46    45    43 1
   47    46    43 1
@<TRIPOS>SUBSTRUCTURE
      1 T17               1 ****               0 ****  **** 
