@<TRIPOS>MOLECULE
Cpptraj Generated mol2 file.
   45    47     1     0     0
SMALL
USER_CHARGES


@<TRIPOS>ATOM
      1 O1          8.9338    1.2218   20.9950 o          1 T20     -0.612100
      2 N1          9.4239    0.1737   22.9939 ns         1 T20     -0.410100
      3 N3          6.1753    0.1551   18.2264 na         1 T20     -0.279100
      4 N4          4.1523    1.4950   18.7207 nb         1 T20     -0.664000
      5 C1          8.7112    0.2715   21.7673 c          1 T20      0.770100
      6 N2          7.6669   -0.6715   21.4409 n          1 T20     -0.405600
      7 C8          6.8725   -0.2745   20.3451 cc         1 T20     -0.045600
      8 C9          7.1652   -0.4415   18.9965 cd         1 T20     -0.052100
      9 C10         5.2494    0.7663   19.0950 ca         1 T20      0.420800
     10 C11         3.4548    1.9699   19.7734 ca         1 T20      0.413200
     11 C12         3.7696    1.7496   21.1312 ca         1 T20     -0.267300
     12 C13         4.8901    1.0069   21.4742 ca         1 T20     -0.050000
     13 C14         5.6610    0.5031   20.4324 ca         1 T20     -0.194100
     14 H9          8.0075   -0.9435   18.5208 h4         1 T20      0.192000
     15 H11         2.5802    2.5694   19.4919 h4         1 T20      0.025100
     16 H12         3.1220    2.1855   21.9106 ha         1 T20      0.146000
     17 H13         5.1652    0.8207   22.5188 ha         1 T20      0.145000
     18 HN3         6.1492    0.1571   17.1961 hn         1 T20      0.316700
     19 H1          9.0665   -0.4348   23.7447 hn         1 T20      0.334500
     20 C2         10.8284    0.1809   22.8464 ca         1 T20     -0.172700
     21 C3         11.5765    1.3916   23.0323 ca         1 T20      0.712200
     22 N9         10.9972    2.6013   23.1816 nu         1 T20     -0.827900
     23 N8         12.9694    1.3630   23.0221 nb         1 T20     -0.737000
     24 C5         13.5771    0.2150   22.6147 ca         1 T20      0.491200
     25 C6         12.8714   -0.9452   22.2609 ca         1 T20     -0.204300
     26 H5         14.6500    0.2787   22.5098 h4         1 T20      0.033100
     27 C16        13.5514   -1.9802   21.6104 cg         1 T20      0.249800
     28 C7         11.5003   -0.9795   22.4578 ca         1 T20     -0.033000
     29 H7         10.9442   -1.9137   22.2516 ha         1 T20      0.158000
     30 N7         14.0921   -2.8142   21.0164 n1         1 T20     -0.374800
     31 H91        10.0006    2.6416   23.2580 hn         1 T20      0.446800
     32 C17        11.7530    3.8369   22.9016 c3         1 T20      0.202800
     33 H171       12.7748    3.8044   23.3723 h1         1 T20      0.053700
     34 H172       11.9544    3.8937   21.7870 h1         1 T20      0.053700
     35 C18        11.0063    5.0740   23.4005 c3         1 T20     -0.110100
     36 H181       11.4546    5.9808   22.9714 hc         1 T20      0.045367
     37 H182        9.9531    5.1072   23.1342 hc         1 T20      0.045367
     38 H183       11.0966    5.1526   24.4862 hc         1 T20      0.045367
     39 C19         7.6201   -1.9916   21.9333 c          1 T20      0.686300
     40 O2          8.4418   -2.3742   22.7152 o          1 T20     -0.613100
     41 C20         6.5033   -2.8804   21.4446 ce         1 T20     -0.235200
     42 H201        5.7861   -2.4344   20.7630 ha         1 T20      0.158000
     43 C21         6.4476   -4.1337   21.8793 c2         1 T20     -0.122000
     44 H211        7.1405   -4.5693   22.5819 ha         1 T20      0.132500
     45 H212        5.6737   -4.8171   21.5768 ha         1 T20      0.132500
@<TRIPOS>BOND
    1     5     1 1
    2     5     2 1
    3     6     5 1
    4     7     6 1
    5     8     3 1
    6     8     7 1
    7     9     3 1
    8     9     4 1
    9    10     4 1
   10    11    10 1
   11    12    11 1
   12    13     7 1
   13    13     9 1
   14    13    12 1
   15    20     2 1
   16    21    20 1
   17    22    21 1
   18    23    21 1
   19    24    23 1
   20    25    24 1
   21    27    25 1
   22    28    20 1
   23    28    25 1
   24    30    27 1
   25    32    22 1
   26    35    32 1
   27    39     6 1
   28    40    39 1
   29    41    39 1
   30    43    41 1
   31    14     8 1
   32    15    10 1
   33    16    11 1
   34    17    12 1
   35    18     3 1
   36    19     2 1
   37    26    24 1
   38    29    28 1
   39    31    22 1
   40    33    32 1
   41    34    32 1
   42    36    35 1
   43    37    35 1
   44    38    35 1
   45    42    41 1
   46    44    43 1
   47    45    43 1
@<TRIPOS>SUBSTRUCTURE
      1 T20               1 ****               0 ****  **** 
