@<TRIPOS>MOLECULE
default_name
   45    47     1     0     1 
SMALL
USER_CHARGES
@<TRIPOS>ATOM
  1 O1      8.935000    1.352000   21.112000 o     1 T20    -0.6121 ****
  2 N1      9.720000   -0.152000   22.625000 ns    1 T20    -0.4101 ****
  3 N3      6.194000    0.149000   17.888000 na    1 T20    -0.2791 ****
  4 N4      4.237000    1.460000   18.615000 nb    1 T20    -0.6640 ****
  5 C1      8.896000    0.206000   21.567000 c     1 T20     0.7701 ****
  6 N2      7.973000   -0.860000   21.013000 n     1 T20    -0.4056 ****
  7 C8      7.104000   -0.315000   19.959000 cc    1 T20    -0.0456 ****
  8 C9      7.240000   -0.475000   18.592000 cd    1 T20    -0.0521 ****
  9 C10     5.381000    0.747000   18.856000 ca    1 T20     0.4208 ****
 10 C11     3.632000    1.896000   19.734000 ca    1 T20     0.4132 ****
 11 C12     4.082000    1.662000   21.056000 ca    1 T20    -0.2673 ****
 12 C13     5.238000    0.940000   21.273000 ca    1 T20    -0.0500 ****
 13 C14     5.920000    0.467000   20.149000 ca    1 T20    -0.1941 ****
 14 H9      7.907000   -0.950000   18.112000 h4    1 T20     0.1920 ****
 15 H11     2.713000    2.481000   19.550000 h4    1 T20     0.0251 ****
 16 H12     3.498000    2.064000   21.894000 ha    1 T20     0.1460 ****
 17 H13     5.615000    0.732000   22.287000 ha    1 T20     0.1450 ****
 18 HN3     6.112000    0.212000   16.878000 hn    1 T20     0.3167 ****
 19 H1      9.559000   -1.120000   22.864000 hn    1 T20     0.3345 ****
 20 C2     11.104000    0.026000   22.240000 ca    1 T20    -0.1727 ****
 21 C3     11.847000    1.183000   22.519000 ca    1 T20     0.7122 ****
 22 N9     11.281000    2.196000   23.173000 nu    1 T20    -0.8279 ****
 23 N8     13.185000    1.273000   22.109000 nb    1 T20    -0.7370 ****
 24 C5     13.780000    0.206000   21.420000 ca    1 T20     0.4912 ****
 25 C6     13.038000   -0.951000   21.141000 ca    1 T20    -0.2043 ****
 26 H5     14.811000    0.275000   21.104000 h4    1 T20     0.0331 ****
 27 C16    13.633000   -2.017000   20.453000 cg    1 T20     0.2498 ****
 28 C7     11.700000   -1.041000   21.551000 ca    1 T20    -0.0330 ****
 29 H7     11.128000   -1.931000   21.336000 ha    1 T20     0.1580 ****
 30 N7     14.175000   -2.986000   19.827000 n1    1 T20    -0.3748 ****
 31 H91    10.622000    2.012000   23.916000 hn    1 T20     0.4468 ****
 32 C17    11.610000    3.560000   22.818000 c3    1 T20     0.2028 ****
 33 H171   12.679000    3.723000   22.954000 h1    1 T20     0.0537 ****
 34 H172   11.345000    3.738000   21.776000 h1    1 T20     0.0537 ****
 35 C18    10.832000    4.519000   23.712000 c3    1 T20    -0.1101 ****
 36 H181   11.079000    5.546000   23.445000 hc    1 T20     0.0454 ****
 37 H182    9.763000    4.356000   23.576000 hc    1 T20     0.0454 ****
 38 H183   11.097000    4.340000   24.754000 hc    1 T20     0.0454 ****
 39 C19     7.951000   -2.126000   21.427000 c     1 T20     0.6863 ****
 40 O2      8.722000   -2.498000   22.323000 o     1 T20    -0.6131 ****
 41 C20     7.057000   -3.037000   20.848000 ce    1 T20    -0.2352 ****
 42 H201    6.385000   -2.713000   20.066000 ha    1 T20     0.1580 ****
 43 C21     7.034000   -4.370000   21.283000 c2    1 T20    -0.1220 ****
 44 H211    7.705000   -4.695000   22.064000 ha    1 T20     0.1325 ****
 45 H212    6.345000   -5.072000   20.837000 ha    1 T20     0.1325 ****
@<TRIPOS>BOND
    1    43    44 1
    2    43    45 1
    3    41    42 1
    4    41    43 1
    5    39    40 1
    6    39    41 1
    7    35    36 1
    8    35    37 1
    9    35    38 1
   10    32    33 1
   11    32    34 1
   12    32    35 1
   13    28    29 1
   14    27    30 1
   15    25    27 1
   16    25    28 1
   17    24    25 1
   18    24    26 1
   19    23    24 1
   20    22    31 1
   21    22    32 1
   22    21    22 1
   23    21    23 1
   24    20    21 1
   25    20    28 1
   26    12    13 1
   27    12    17 1
   28    11    12 1
   29    11    16 1
   30    10    11 1
   31    10    15 1
   32     9    13 1
   33     8    14 1
   34     7     8 1
   35     7    13 1
   36     6     7 1
   37     6    39 1
   38     5     6 1
   39     4     9 1
   40     4    10 1
   41     3     8 1
   42     3     9 1
   43     3    18 1
   44     2     5 1
   45     2    19 1
   46     2    20 1
   47     1     5 1
@<TRIPOS>SUBSTRUCTURE
      1  T20              1 ****               0 ****  **** 
