@<TRIPOS>MOLECULE
Cpptraj Generated mol2 file.
   48    50     1     0     0
SMALL
USER_CHARGES


@<TRIPOS>ATOM
      1 O1          9.0924    1.4426   21.0437 o          1 T18     -0.597100
      2 N1          9.4502    0.1495   22.8914 ns         1 T18     -0.457100
      3 N3          6.0491    0.6438   18.0987 na         1 T18     -0.303100
      4 N4          3.9664    1.8309   18.6636 nb         1 T18     -0.661000
      5 C1          8.7440    0.4931   21.7357 c          1 T18      0.633100
      6 C2L         7.5365   -0.3956   21.3851 c3         1 T18      0.128900
      7 C8          6.7780    0.1611   20.2401 cc         1 T18     -0.164400
      8 C9          7.0577    0.0676   18.8847 cd         1 T18      0.202400
      9 C10         5.1127    1.1613   19.0004 ca         1 T18      0.436800
     10 C11         3.2518    2.2390   19.7266 ca         1 T18      0.415200
     11 C12         3.6005    2.0166   21.0799 ca         1 T18     -0.261300
     12 C13         4.7554    1.3306   21.3931 ca         1 T18     -0.052000
     13 C14         5.5455    0.8801   20.3335 ca         1 T18     -0.172100
     14 N10         8.0926   -1.7063   21.0346 ns         1 T18     -0.566900
     15 H2L1        6.8398   -0.4552   22.2732 h1         1 T18      0.100700
     16 F1          8.0943   -0.4557   18.2744 f          1 T18     -0.132500
     17 H11         2.3331    2.7904   19.4653 h4         1 T18      0.027100
     18 H12         2.9414    2.4052   21.8701 ha         1 T18      0.148000
     19 H13         5.0499    1.1464   22.4384 ha         1 T18      0.146000
     20 HN3         6.0052    0.6340   17.0839 hn         1 T18      0.323700
     21 H1          9.0547   -0.5309   23.5426 hn         1 T18      0.345500
     22 C2         10.8690    0.1745   22.8050 ca         1 T18     -0.139700
     23 C3         11.6248    1.3720   23.0093 ca         1 T18      0.692200
     24 N9         11.0645    2.5955   23.2240 nu         1 T18     -0.827900
     25 N8         13.0123    1.3335   22.9839 nb         1 T18     -0.732000
     26 C5         13.5997    0.2018   22.5967 ca         1 T18      0.481200
     27 C6         12.9041   -0.9650   22.2512 ca         1 T18     -0.196300
     28 H5         14.6879    0.2855   22.5302 h4         1 T18      0.033100
     29 C16        13.5623   -2.0423   21.6160 cg         1 T18      0.249800
     30 C7         11.5187   -0.9931   22.4248 ca         1 T18     -0.046000
     31 H7         10.9596   -1.9185   22.2263 ha         1 T18      0.152000
     32 N7         14.0851   -2.8895   21.0351 n1         1 T18     -0.376800
     33 H91        10.0490    2.6707   23.2744 hn         1 T18      0.438800
     34 C17        11.8318    3.8239   22.9270 c3         1 T18      0.197800
     35 H171       12.8638    3.8038   23.3641 h1         1 T18      0.053200
     36 H172       12.0099    3.8921   21.8245 h1         1 T18      0.053200
     37 C18        11.0842    5.0567   23.4264 c3         1 T18     -0.109100
     38 H181       11.5406    5.9421   22.9647 hc         1 T18      0.044700
     39 H182       10.0163    5.0770   23.1649 hc         1 T18      0.044700
     40 H183       11.1303    5.1754   24.5168 hc         1 T18      0.044700
     41 H101        8.7598   -1.7523   20.2617 hn         1 T18      0.328500
     42 C19         7.7174   -2.8706   21.6958 c          1 T18      0.668300
     43 C20         8.0859   -4.1349   21.0275 ce         1 T18     -0.241200
     44 O2          7.1139   -2.8213   22.7698 o          1 T18     -0.638100
     45 H201        8.9596   -4.1268   20.3579 ha         1 T18      0.137000
     46 C21         7.4014   -5.2452   21.2674 c2         1 T18     -0.118000
     47 H211        7.6469   -6.1889   20.7831 ha         1 T18      0.133500
     48 H212        6.5464   -5.3165   21.9386 ha         1 T18      0.133500
@<TRIPOS>BOND
    1     5     1 1
    2     5     2 1
    3     6     5 1
    4     7     6 1
    5     8     3 1
    6     8     7 1
    7     9     3 1
    8     9     4 1
    9    10     4 1
   10    11    10 1
   11    12    11 1
   12    13     7 1
   13    13     9 1
   14    13    12 1
   15    14     6 1
   16    16     8 1
   17    22     2 1
   18    23    22 1
   19    24    23 1
   20    25    23 1
   21    26    25 1
   22    27    26 1
   23    29    27 1
   24    30    22 1
   25    30    27 1
   26    32    29 1
   27    34    24 1
   28    37    34 1
   29    42    14 1
   30    43    42 1
   31    44    42 1
   32    46    43 1
   33    15     6 1
   34    17    10 1
   35    18    11 1
   36    19    12 1
   37    20     3 1
   38    21     2 1
   39    28    26 1
   40    31    30 1
   41    33    24 1
   42    35    34 1
   43    36    34 1
   44    38    37 1
   45    39    37 1
   46    40    37 1
   47    41    14 1
   48    45    43 1
   49    47    46 1
   50    48    46 1
@<TRIPOS>SUBSTRUCTURE
      1 T18               1 ****               0 ****  **** 
