@<TRIPOS>MOLECULE
Cpptraj Generated mol2 file.
   43    44     1     0     0
SMALL
USER_CHARGES


@<TRIPOS>ATOM
      1 O1          8.6312    1.0147   20.8029 o          1 T15     -0.568100
      2 C1          8.1462    0.0633   21.4358 c          1 T15      0.779100
      3 N1          8.8628   -0.6617   22.3858 ns         1 T15     -0.454100
      4 C2         10.2211   -0.3037   22.5809 ca         1 T15     -0.155700
      5 C3         10.5469    0.9205   23.2533 ca         1 T15      0.700200
      6 N8         11.8610    1.3488   23.3596 nb         1 T15     -0.727000
      7 C5         12.8093    0.5427   22.8522 ca         1 T15      0.489200
      8 C6         12.5434   -0.6775   22.2182 ca         1 T15     -0.190300
      9 C7         11.2218   -1.1079   22.0733 ca         1 T15     -0.038000
     10 N2          6.7873   -0.3022   21.2553 n          1 T15     -0.438600
     11 C8          6.1287    0.2277   20.1051 ca         1 T15     -0.006700
     12 C9          5.0107    1.0383   20.2658 ca         1 T15     -0.172000
     13 C10         4.4234    1.5888   19.1127 ca         1 T15      0.056300
     14 C11         5.0051    1.2940   17.8579 ca         1 T15      0.318200
     15 N3          6.0927    0.5140   17.7144 nb         1 T15     -0.613000
     16 C12         6.6478   -0.0188   18.8195 ca         1 T15      0.321200
     17 H1          8.5683   -1.5756   22.7415 hn         1 T15      0.328500
     18 N9          9.5663    1.6686   23.8358 nu         1 T15     -0.827900
     19 H5         13.8337    0.9280   22.9632 h4         1 T15      0.038100
     20 C16        13.5298   -1.4608   21.5788 cg         1 T15      0.242800
     21 H7         10.9948   -2.0477   21.5478 ha         1 T15      0.152000
     22 C19         6.0956   -1.2209   22.1421 c          1 T15      0.673300
     23 H9          4.6057    1.2560   21.2624 ha         1 T15      0.166000
     24 N4          3.2626    2.3414   19.1998 nv         1 T15     -0.818200
     25 H11         4.6057    1.7221   16.9318 h4         1 T15      0.025100
     26 H12         7.5279   -0.6566   18.6543 h4         1 T15      0.023100
     27 H41         3.0636    2.8004   20.0780 hn         1 T15      0.400300
     28 H42         3.0016    2.8812   18.3888 hn         1 T15      0.400300
     29 N7         14.2530   -2.1033   20.9518 n1         1 T15     -0.361800
     30 C17         9.7332    3.0839   24.1955 c3         1 T15      0.195800
     31 H91         8.6207    1.2939   23.8759 hn         1 T15      0.434800
     32 C18         8.5093    3.5510   24.9827 c3         1 T15     -0.111100
     33 H172       10.6719    3.2446   24.7702 h1         1 T15      0.056700
     34 H171        9.8617    3.6950   23.2707 h1         1 T15      0.056700
     35 H181        8.5570    4.6336   25.1758 hc         1 T15      0.045700
     36 H182        8.4167    3.0455   25.9557 hc         1 T15      0.045700
     37 H183        7.5638    3.3773   24.4451 hc         1 T15      0.045700
     38 C20         6.2781   -0.9998   23.5795 ce         1 T15     -0.247200
     39 O2          5.4211   -2.0907   21.6267 o          1 T15     -0.562100
     40 H201        6.6041   -0.0028   23.8924 ha         1 T15      0.148000
     41 C21         5.9657   -1.9535   24.4604 c2         1 T15     -0.121000
     42 H211        5.6061   -2.9472   24.1907 ha         1 T15      0.134000
     43 H212        6.0586   -1.7998   25.5388 ha         1 T15      0.134000
@<TRIPOS>BOND
    1     2     1 1
    2     3     2 1
    3     4     3 1
    4     5     4 1
    5     6     5 1
    6     7     6 1
    7     8     7 1
    8     9     4 1
    9     9     8 1
   10    10     2 1
   11    11    10 1
   12    12    11 1
   13    13    12 1
   14    14    13 1
   15    15    14 1
   16    16    11 1
   17    16    15 1
   18    18     5 1
   19    20     8 1
   20    22    10 1
   21    24    13 1
   22    29    20 1
   23    30    18 1
   24    32    30 1
   25    38    22 1
   26    39    22 1
   27    41    38 1
   28    17     3 1
   29    19     7 1
   30    21     9 1
   31    23    12 1
   32    25    14 1
   33    26    16 1
   34    27    24 1
   35    28    24 1
   36    31    18 1
   37    33    30 1
   38    34    30 1
   39    35    32 1
   40    36    32 1
   41    37    32 1
   42    40    38 1
   43    42    41 1
   44    43    41 1
@<TRIPOS>SUBSTRUCTURE
      1 T15               1 ****               0 ****  **** 
