@<TRIPOS>MOLECULE
default_name
   46    47     1     0     1 
SMALL
USER_CHARGES
@<TRIPOS>ATOM
  1 O1      8.713000    1.132000   20.727000 o     1 T16    -0.6031 ****
  2 C1      8.173000    0.247000   21.411000 c     1 T16     0.6371 ****
  3 N1      8.869000   -0.472000   22.376000 ns    1 T16    -0.4521 ****
  4 C2     10.221000   -0.089000   22.636000 ca    1 T16    -0.1427 ****
  5 C3     10.461000    0.927000   23.562000 ca    1 T16     0.6922 ****
  6 N8     11.768000    1.327000   23.805000 nb    1 T16    -0.7310 ****
  7 C5     12.819000    0.720000   23.129000 ca    1 T16     0.4812 ****
  8 C6     12.569000   -0.296000   22.216000 ca    1 T16    -0.1943 ****
  9 C7     11.269000   -0.716000   21.960000 ca    1 T16    -0.0450 ****
 10 C2L     6.807000   -0.063000   21.240000 c3    1 T16     0.0990 ****
 11 C8      6.157000    0.487000   20.114000 ca    1 T16    -0.1896 ****
 12 C9      5.003000    1.255000   20.243000 ca    1 T16    -0.1420 ****
 13 C10     4.388000    1.751000   19.079000 ca    1 T16     0.0243 ****
 14 C11     4.961000    1.434000   17.822000 ca    1 T16     0.3522 ****
 15 N3      6.076000    0.701000   17.672000 nb    1 T16    -0.6340 ****
 16 C12     6.659000    0.247000   18.814000 ca    1 T16     0.3832 ****
 17 H1      8.510000   -1.328000   22.797000 hn    1 T16     0.3455 ****
 18 N9      9.454000    1.515000   24.206000 nu    1 T16    -0.8279 ****
 19 H5     13.843000    1.064000   23.294000 h4    1 T16     0.0331 ****
 20 C16    13.632000   -0.894000   21.522000 cg    1 T16     0.2488 ****
 21 H7     11.075000   -1.510000   21.230000 ha    1 T16     0.1550 ****
 22 H9      4.595000    1.485000   21.236000 ha    1 T16     0.1420 ****
 23 N4      3.204000    2.456000   19.158000 nv    1 T16    -0.8132 ****
 24 H11     4.544000    1.821000   16.885000 h4    1 T16     0.0251 ****
 25 H12     7.458000   -0.246000   18.677000 h4    1 T16     0.0421 ****
 26 H41     2.993000    2.930000   20.028000 hn    1 T16     0.3968 ****
 27 H42     2.904000    2.953000   18.330000 hn    1 T16     0.3968 ****
 28 N7     14.597000   -1.437000   20.892000 n1    1 T16    -0.3748 ****
 29 C17     9.183000    2.921000   23.994000 c3    1 T16     0.1978 ****
 30 H91     8.879000    0.980000   24.841000 hn    1 T16     0.4378 ****
 31 C18     7.988000    3.342000   24.843000 c3    1 T16    -0.1101 ****
 32 H172   10.056000    3.506000   24.282000 h1    1 T16     0.0537 ****
 33 H171    8.960000    3.094000   22.942000 h1    1 T16     0.0537 ****
 34 H181    7.784000    4.401000   24.683000 hc    1 T16     0.0444 ****
 35 H182    8.211000    3.169000   25.895000 hc    1 T16     0.0444 ****
 36 H183    7.115000    2.757000   24.556000 hc    1 T16     0.0444 ****
 37 N10     6.696000   -1.503000   21.147000 ns    1 T16    -0.5679 ****
 38 H2L1    6.272000    0.261000   22.132000 h1    1 T16     0.0927 ****
 39 C19     5.514000   -2.093000   21.320000 c     1 T16     0.6653 ****
 40 H101    7.514000   -2.061000   20.949000 hn    1 T16     0.3295 ****
 41 C20     5.406000   -3.488000   21.230000 ce    1 T16    -0.2152 ****
 42 O2      4.510000   -1.408000   21.562000 o     1 T16    -0.6271 ****
 43 C21     6.543000   -4.263000   20.956000 c2    1 T16    -0.1610 ****
 44 H201    4.448000   -3.966000   21.371000 ha    1 T16     0.1620 ****
 45 H211    7.501000   -3.785000   20.816000 ha    1 T16     0.1260 ****
 46 H212    6.460000   -5.337000   20.887000 ha    1 T16     0.1260 ****
@<TRIPOS>BOND
    1    43    45 1
    2    43    46 1
    3    41    43 1
    4    41    44 1
    5    39    41 1
    6    39    42 1
    7    37    39 1
    8    37    40 1
    9    31    34 1
   10    31    35 1
   11    31    36 1
   12    29    31 1
   13    29    32 1
   14    29    33 1
   15    23    26 1
   16    23    27 1
   17    20    28 1
   18    18    29 1
   19    18    30 1
   20    16    25 1
   21    15    16 1
   22    14    15 1
   23    14    24 1
   24    13    14 1
   25    13    23 1
   26    12    13 1
   27    12    22 1
   28    11    12 1
   29    11    16 1
   30    10    11 1
   31    10    37 1
   32    10    38 1
   33     9    21 1
   34     8     9 1
   35     8    20 1
   36     7     8 1
   37     7    19 1
   38     6     7 1
   39     5     6 1
   40     5    18 1
   41     4     5 1
   42     4     9 1
   43     3     4 1
   44     3    17 1
   45     2     3 1
   46     2    10 1
   47     1     2 1
@<TRIPOS>SUBSTRUCTURE
      1  T16              1 ****               0 ****  **** 
