@<TRIPOS>MOLECULE
Cpptraj Generated mol2 file.
   45    47     1     0     0
SMALL
USER_CHARGES


@<TRIPOS>ATOM
      1 O1          8.9138    1.2004   20.9346 o          1 T21     -0.599100
      2 N1          9.3854    0.2100   22.9537 ns         1 T21     -0.412100
      3 N3          6.0598    0.2640   18.2413 na         1 T21     -0.303100
      4 N4          4.0345    1.5459   18.8134 nb         1 T21     -0.660000
      5 C1          8.6841    0.2902   21.7336 c          1 T21      0.767100
      6 N2          7.6140   -0.6221   21.4442 n          1 T21     -0.405600
      7 C8          6.7827   -0.2218   20.3763 cc         1 T21     -0.046600
      8 C9          7.0680   -0.3214   19.0128 cd         1 T21      0.208400
      9 C10         5.1467    0.8206   19.1486 ca         1 T21      0.436800
     10 C11         3.3395    1.9871   19.8733 ca         1 T21      0.414200
     11 C12         3.6664    1.7347   21.2306 ca         1 T21     -0.262300
     12 C13         4.7868    0.9942   21.5430 ca         1 T21     -0.050000
     13 C14         5.5636    0.5276   20.4799 ca         1 T21     -0.179100
     14 F1          8.0899   -0.8805   18.4144 f          1 T21     -0.116500
     15 H11         2.4535    2.5898   19.6121 h4         1 T21      0.028100
     16 H12         3.0154    2.1391   22.0198 ha         1 T21      0.149000
     17 H13         5.0673    0.7702   22.5816 ha         1 T21      0.149000
     18 HN3         6.0345    0.3067   17.2241 hn         1 T21      0.324700
     19 H1          9.0425   -0.3727   23.7245 hn         1 T21      0.332500
     20 C2         10.8035    0.2114   22.8064 ca         1 T21     -0.173700
     21 C3         11.5522    1.4162   22.9995 ca         1 T21      0.712200
     22 N9         10.9844    2.6370   23.1686 nu         1 T21     -0.826900
     23 N8         12.9420    1.3803   22.9984 nb         1 T21     -0.736000
     24 C5         13.5348    0.2508   22.6178 ca         1 T21      0.491200
     25 C6         12.8420   -0.9179   22.2572 ca         1 T21     -0.203300
     26 H5         14.6241    0.3316   22.5737 h4         1 T21      0.034100
     27 C16        13.5183   -1.9766   21.6258 cg         1 T21      0.248800
     28 C7         11.4583   -0.9547   22.4297 ca         1 T21     -0.033000
     29 H7         10.9086   -1.8872   22.2415 ha         1 T21      0.157000
     30 N7         14.0727   -2.8094   21.0421 n1         1 T21     -0.374800
     31 H91         9.9684    2.7137   23.2186 hn         1 T21      0.445800
     32 C17        11.7628    3.8703   22.9295 c3         1 T21      0.201800
     33 H171       12.7786    3.8399   23.3986 h1         1 T21      0.054200
     34 H172       11.9748    3.9523   21.8344 h1         1 T21      0.054200
     35 C18        10.9957    5.0882   23.4290 c3         1 T21     -0.110100
     36 H181       11.4825    5.9822   23.0085 hc         1 T21      0.045367
     37 H182        9.9437    5.1278   23.1123 hc         1 T21      0.045367
     38 H183       11.0029    5.1753   24.5242 hc         1 T21      0.045367
     39 C19         7.5581   -1.9693   21.9230 c          1 T21      0.688300
     40 O2          8.4522   -2.3522   22.6713 o          1 T21     -0.604100
     41 C20         6.4346   -2.8233   21.5126 ce         1 T21     -0.236200
     42 H201        5.6902   -2.3993   20.8349 ha         1 T21      0.155000
     43 C21         6.3649   -4.0678   21.9884 c2         1 T21     -0.120000
     44 H211        7.0758   -4.5133   22.6857 ha         1 T21      0.133500
     45 H212        5.5620   -4.7561   21.7304 ha         1 T21      0.133500
@<TRIPOS>BOND
    1     5     1 1
    2     5     2 1
    3     6     5 1
    4     7     6 1
    5     8     3 1
    6     8     7 1
    7     9     3 1
    8     9     4 1
    9    10     4 1
   10    11    10 1
   11    12    11 1
   12    13     7 1
   13    13     9 1
   14    13    12 1
   15    14     8 1
   16    20     2 1
   17    21    20 1
   18    22    21 1
   19    23    21 1
   20    24    23 1
   21    25    24 1
   22    27    25 1
   23    28    20 1
   24    28    25 1
   25    30    27 1
   26    32    22 1
   27    35    32 1
   28    39     6 1
   29    40    39 1
   30    41    39 1
   31    43    41 1
   32    15    10 1
   33    16    11 1
   34    17    12 1
   35    18     3 1
   36    19     2 1
   37    26    24 1
   38    29    28 1
   39    31    22 1
   40    33    32 1
   41    34    32 1
   42    36    35 1
   43    37    35 1
   44    38    35 1
   45    42    41 1
   46    44    43 1
   47    45    43 1
@<TRIPOS>SUBSTRUCTURE
      1 T21               1 ****               0 ****  **** 
