@<TRIPOS>MOLECULE
S35
31 33 1 0 0
SMALL
AMBER ff14SB


@<TRIPOS>ATOM
      1 O1          9.0980    0.7170   20.8630 o         1 S35   -0.6111
      2 C1          8.5440   -0.2000   21.3730 c2        1 S35    0.6471
      3 N1          9.1810   -0.9260   22.4450 n         1 S35   -0.4061
      4 C2         10.4660   -0.4470   22.8510 ca        1 S35    0.0706
      5 C3         10.5000    0.3870   23.9490 ca        1 S35   -0.1610
      6 C4         11.7040    0.9000   24.3650 ca        1 S35   -0.1065
      7 C5         12.8650    0.5840   23.6730 ca        1 S35   -0.1510
      8 C6         12.8230   -0.2500   22.5690 ca        1 S35   -0.1065
      9 C7         11.6120   -0.7630   22.1470 ca        1 S35   -0.1610
     10 N2          7.2370   -0.6260   20.9410 n         1 S35   -0.3921
     11 C8          6.5590    0.0580   19.8740 ca        1 S35   -0.0710
     12 C9          5.3530    0.6830   20.1520 ca        1 S35    0.2713
     13 C10         4.7260    1.3390   19.1050 ca        1 S35    0.1820
     14 C11         5.3210    1.3050   17.8490 ca        1 S35    0.3569
     15 N3          6.4720    0.7100   17.6440 nb        1 S35   -0.6330
     16 C12         7.1030    0.0840   18.6020 ca        1 S35    0.3772
     17 H1          8.7452   -1.7251   22.8827 hn        1 S35    0.3165
     18 H3          9.5900    0.6338   24.4757 ha        1 S35    0.1495
     19 H4         11.7474    1.5476   25.2282 ha        1 S35    0.1340
     20 H5         13.8100    0.9927   23.9990 ha        1 S35    0.1340
     21 H6         13.7317   -0.4981   22.0408 ha        1 S35    0.1340
     22 H7         11.5616   -1.4026   21.2783 ha        1 S35    0.1495
     23 H2          6.7930   -1.4129   21.3924 hn        1 S35    0.3305
     24 H11         4.8215    1.7819   17.0186 h4        1 S35    0.0451
     25 H12         8.0426   -0.4096   18.4023 h4        1 S35    0.0681
     26 N6          4.7922    0.6525   21.4371 nb        1 S35   -0.6470
     27 C14         3.5704    1.2952   21.6844 ca        1 S35    0.3119
     28 C15         2.9095    1.9684   20.6467 ca        1 S35    0.2919
     29 H142        3.1386    1.2717   22.6740 h4        1 S35    0.0371
     30 N5          3.4703    1.9989   19.3616 nb        1 S35   -0.6020
     31 H152        1.9687    2.4633   20.8372 h4        1 S35    0.0401
@<TRIPOS>BOND
     1    1    2 2
     2    2    3 2
     3    2   10 2
     4    3    4 1
     5   10   11 1
     6    4    5 ar
     7    4    9 ar
     8    5    6 ar
     9    9    8 ar
    10    6    7 ar
    11    7    8 ar
    12   11   12 ar
    13   11   16 ar
    14   12   13 ar
    15   16   15 ar
    16   13   14 ar
    17   14   15 ar
    18   17    3 1
    19   18    5 1
    20   19    6 1
    21   20    7 1
    22   21    8 1
    23   22    9 1
    24   23   10 1
    25   24   14 1
    26   25   16 1
    27   26   12 ar
    28   27   26 ar
    29   28   27 ar
    30   29   27 1
    31   30   28 ar
    32   31   28 1
    33   30   13 ar
@<TRIPOS>SUBSTRUCTURE
     1 S35     1 RESIDUE           4 A     S35     0 ROOT
