@<TRIPOS>MOLECULE
S45
37 39 1 0 2
SMALL
AMBER ff14SB


@<TRIPOS>ATOM
      1 O1          9.3680    1.1120   21.0320 O.2       1 S45   -0.5841
      2 C1          8.8120    0.3220   21.7270 C.2       1 S45    0.6641
      3 C2          9.3520   -0.1440   23.0660 C.3       1 S45   -0.1484
      4 C3         10.8670   -0.0690   23.1260 C.3       1 S45   -0.0557
      5 C4         11.5080   -1.0370   22.1340 C.3       1 S45   -0.0754
      6 C5         12.7630   -1.7020   22.6880 C.3       1 S45   -0.0729
      7 C6         13.5520   -0.8480   23.6720 C.3       1 S45   -0.0764
      8 C7         12.7110   -0.1420   24.7310 C.3       1 S45   -0.0729
      9 C8         11.2210   -0.3910   24.5640 C.3       1 S45   -0.0754
     10 N1          7.5600   -0.2470   21.3550 N.am      1 S45   -0.4621
     11 C9          6.9510    0.1800   20.1360 C.ar      1 S45    0.0233
     12 C10         5.7034    0.7483   20.2598 C.ar      1 S45   -0.1070
     13 C11         5.0950    1.2170   19.1050 N.pl3     1 S45   -0.1476
     14 C12         5.7610    1.0320   17.9010 C.ar      1 S45    0.3692
     15 N2          6.9560    0.4630   17.8400 N.2       1 S45   -0.6260
     16 C13         7.5800    0.0350   18.9160 C.ar      1 S45    0.3362
     17 H22         9.0443   -1.1769   23.2291 H         1 S45    0.0672
     18 H23         8.9335    0.4806   23.8551 H         1 S45    0.0672
     19 H3         11.1867    0.9472   22.8953 H         1 S45    0.0737
     20 H42        10.7833   -1.8124   21.8858 H         1 S45    0.0427
     21 H43        11.7679   -0.4924   21.2263 H         1 S45    0.0427
     22 H52        13.4162   -1.9462   21.8502 H         1 S45    0.0384
     23 H53        12.4748   -2.6282   23.1852 H         1 S45    0.0384
     24 H62        14.2665   -1.4936   24.1828 H         1 S45    0.0417
     25 H63        14.1054   -0.0951   23.1108 H         1 S45    0.0417
     26 H72        13.0158   -0.5015   25.7138 H         1 S45    0.0384
     27 H73        12.8984    0.9302   24.6735 H         1 S45    0.0384
     28 H82        10.6577    0.2528   25.2395 H         1 S45    0.0427
     29 H83        10.9950   -1.4362   24.7751 H         1 S45    0.0427
     30 H1          7.1128   -0.9375   21.9409 H         1 S45    0.3345
     31 N4          4.9769    1.0811   21.3485 N.2       1 S45   -0.1520
     32 N3          4.0136    1.9680   19.4481 N.pl3     1 S45   -0.2594
     33 H12         5.2908    1.3619   16.9864 H         1 S45    0.0251
     34 H13         8.5581   -0.4176   18.8467 H         1 S45    0.0641
     35 C14         3.9702    1.8080   20.8395 C.ar      1 S45    0.0992
     36 H142        3.2487    2.3407   21.4358 H         1 S45    0.0718
     37 HN3         3.7800    2.8527   18.9886 H         1 S45    0.3107
@<TRIPOS>BOND
     1    1    2 2
     2    2    3 1
     3    2   10 am
     4    4    3 1
     5   10   11 1
     6    4    5 1
     7    4    9 1
     8    5    6 1
     9    9    8 1
    10    6    7 1
    11    7    8 1
    12   11   12 2
    13   11   16 2
    14   12   13 2
    15   16   15 2
    16   13   14 2
    17   14   15 2
    18   17    3 1
    19   18    3 1
    20   19    4 1
    21   20    5 1
    22   21    5 1
    23   22    6 1
    24   23    6 1
    25   24    7 1
    26   25    7 1
    27   26    8 1
    28   27    8 1
    29   28    9 1
    30   29    9 1
    31   30   10 1
    32   31   12 2
    33   32   13 2
    34   33   14 1
    35   34   16 1
    36   35   32 2
    37   36   35 1
    38   35   31 2
    39   37   32 1
@<TRIPOS>SUBSTRUCTURE
     1 S45     1 RESIDUE           4 A     S45     0 ROOT
@<TRIPOS>SET
ANCHOR          STATIC     ATOMS    <user>   **** Anchor Atom Set
13 35 36 31 37 32
RIGID           STATIC     BONDS    <user>   **** Rigid Bond Set
11 39 38 37 36
