@<TRIPOS>MOLECULE
S29
32 34 1 0 0
SMALL
AMBER ff14SB


@<TRIPOS>ATOM
      1 O1          9.0980    0.7170   20.8630 o         1 S29   -0.6051
      2 C1          8.5440   -0.2000   21.3730 c2        1 S29    0.6501
      3 N1          9.1810   -0.9260   22.4450 n         1 S29   -0.4001
      4 C2         10.4660   -0.4470   22.8510 ca        1 S29    0.0626
      5 C3         10.5000    0.3870   23.9490 ca        1 S29   -0.1575
      6 C4         11.7040    0.9000   24.3650 ca        1 S29   -0.1075
      7 C5         12.8650    0.5840   23.6730 ca        1 S29   -0.1490
      8 C6         12.8230   -0.2500   22.5690 ca        1 S29   -0.1075
      9 C7         11.6120   -0.7630   22.1470 ca        1 S29   -0.1575
     10 N2          7.2370   -0.6260   20.9410 n         1 S29   -0.4171
     11 C8          6.5590    0.0580   19.8740 ca        1 S29   -0.0227
     12 C9          5.3530    0.6830   20.1520 ca        1 S29   -0.1483
     13 C10         4.7260    1.3390   19.1050 ca        1 S29    0.2893
     14 C11         5.3210    1.3050   17.8490 ca        1 S29    0.3529
     15 N3          6.4720    0.7100   17.6440 nb        1 S29   -0.6370
     16 C12         7.1030    0.0840   18.6020 ca        1 S29    0.3712
     17 H1          8.7452   -1.7251   22.8827 hn        1 S29    0.3085
     18 H3          9.5900    0.6338   24.4757 ha        1 S29    0.1485
     19 H4         11.7474    1.5476   25.2282 ha        1 S29    0.1350
     20 H5         13.8100    0.9927   23.9990 ha        1 S29    0.1350
     21 H6         13.7317   -0.4981   22.0408 ha        1 S29    0.1350
     22 H7         11.5616   -1.4026   21.2783 ha        1 S29    0.1485
     23 H2          6.7930   -1.4129   21.3924 hn        1 S29    0.3175
     24 N4          3.4273    1.8391   19.2864 nb        1 S29   -0.6380
     25 H11         4.8215    1.7819   17.0186 h4        1 S29    0.0431
     26 H12         8.0426   -0.4096   18.4023 h4        1 S29    0.0611
     27 C15         4.8690    0.9230   21.4563 ca        1 S29   -0.0920
     28 H15         5.4412    0.5944   22.3154 ha        1 S29    0.1300
     29 C14         3.7403    1.7447   21.6494 ca        1 S29   -0.2343
     30 H14         3.4824    2.0830   22.6442 ha        1 S29    0.1470
     31 C13         2.9917    2.1956   20.5498 ca        1 S29    0.4082
     32 H13         2.1787    2.9198   20.6264 h4        1 S29    0.0281
@<TRIPOS>BOND
     1    1    2 2
     2    2    3 2
     3    2   10 2
     4    3    4 1
     5   10   11 1
     6    4    5 ar
     7    4    9 ar
     8    5    6 ar
     9    9    8 ar
    10    6    7 ar
    11    7    8 ar
    12   11   12 ar
    13   11   16 ar
    14   12   13 ar
    15   16   15 ar
    16   13   14 ar
    17   14   15 ar
    18   17    3 1
    19   18    5 1
    20   19    6 1
    21   20    7 1
    22   21    8 1
    23   22    9 1
    24   23   10 1
    25   24   13 ar
    26   25   14 1
    27   26   16 1
    28   27   12 ar
    29   28   27 1
    30   29   27 ar
    31   30   29 1
    32   31   29 ar
    33   32   31 1
    34   31   24 ar
@<TRIPOS>SUBSTRUCTURE
     1 S29     1 RESIDUE           4 A     S29     0 ROOT
