@<TRIPOS>MOLECULE
S37
36 37 1 0 2
SMALL
AMBER ff14SB


@<TRIPOS>ATOM
      1 O1          9.3680    1.1120   21.0320 O.2       1 S37   -0.5781
      2 C1          8.8120    0.3220   21.7270 C.2       1 S37    0.6671
      3 C2          9.3520   -0.1440   23.0660 C.3       1 S37   -0.1494
      4 C3         10.8670   -0.0690   23.1260 C.3       1 S37   -0.0567
      5 C4         11.5080   -1.0370   22.1340 C.3       1 S37   -0.0744
      6 C5         12.7630   -1.7020   22.6880 C.3       1 S37   -0.0729
      7 C6         13.5520   -0.8480   23.6720 C.3       1 S37   -0.0774
      8 C7         12.7110   -0.1420   24.7310 C.3       1 S37   -0.0729
      9 C8         11.2210   -0.3910   24.5640 C.3       1 S37   -0.0744
     10 N1          7.5600   -0.2470   21.3550 N.am      1 S37   -0.4741
     11 C9          6.9510    0.1800   20.1360 C.ar      1 S37   -0.0057
     12 C10         5.7070    0.7820   20.2730 C.ar      1 S37   -0.2240
     13 C11         5.0950    1.2170   19.1050 C.ar      1 S37    0.0523
     14 C12         5.7610    1.0320   17.9010 C.ar      1 S37    0.3102
     15 N2          6.9560    0.4630   17.8400 N.ar      1 S37   -0.6150
     16 C13         7.5800    0.0350   18.9160 C.ar      1 S37    0.3322
     17 H22         9.0443   -1.1769   23.2291 H         1 S37    0.0647
     18 H23         8.9335    0.4806   23.8551 H         1 S37    0.0647
     19 H3         11.1867    0.9472   22.8953 H         1 S37    0.0757
     20 H42        10.7833   -1.8124   21.8858 H         1 S37    0.0420
     21 H43        11.7679   -0.4924   21.2263 H         1 S37    0.0420
     22 H52        13.4162   -1.9462   21.8502 H         1 S37    0.0389
     23 H53        12.4748   -2.6282   23.1852 H         1 S37    0.0389
     24 H62        14.2665   -1.4936   24.1828 H         1 S37    0.0422
     25 H63        14.1054   -0.0951   23.1108 H         1 S37    0.0422
     26 H72        13.0158   -0.5015   25.7138 H         1 S37    0.0389
     27 H73        12.8984    0.9302   24.6735 H         1 S37    0.0389
     28 H82        10.6577    0.2528   25.2395 H         1 S37    0.0420
     29 H83        10.9950   -1.4362   24.7751 H         1 S37    0.0420
     30 H1          7.1128   -0.9375   21.9409 H         1 S37    0.3135
     31 H10         5.2395    0.9055   21.2387 H         1 S37    0.1330
     32 N3          3.9799    2.0406   19.1692 N.pl3     1 S37   -0.8142
     33 H12         5.2908    1.3619   16.9864 H         1 S37    0.0221
     34 H13         8.5581   -0.4176   18.8467 H         1 S37    0.0611
     35 H31         4.2141    2.9079   19.6828 H         1 S37    0.3928
     36 H32         3.6698    2.3340   18.2351 H         1 S37    0.3928
@<TRIPOS>BOND
     1    1    2 2
     2    2    3 1
     3    2   10 am
     4    4    3 1
     5   10   11 1
     6    4    5 1
     7    4    9 1
     8    5    6 1
     9    9    8 1
    10    6    7 1
    11    7    8 1
    12   11   12 ar
    13   11   16 ar
    14   12   13 ar
    15   16   15 ar
    16   13   14 ar
    17   14   15 ar
    18   17    3 1
    19   18    3 1
    20   19    4 1
    21   20    5 1
    22   21    5 1
    23   22    6 1
    24   23    6 1
    25   24    7 1
    26   25    7 1
    27   26    8 1
    28   27    8 1
    29   28    9 1
    30   29    9 1
    31   30   10 1
    32   31   12 1
    33   32   13 1
    34   33   14 1
    35   34   16 1
    36   35   32 1
    37   36   32 1
@<TRIPOS>SUBSTRUCTURE
     1 S37     1 RESIDUE           4 A     S37     0 ROOT
@<TRIPOS>SET
ANCHOR          STATIC     ATOMS    <user>   **** Anchor Atom Set
11 36 32 35
RIGID           STATIC     BONDS    <user>   **** Rigid Bond Set
9 36 37
