@<TRIPOS>MOLECULE
SPE_0087
36 38 1 0 0
SMALL
NO_CHARGES


@<TRIPOS>ATOM
      1 C1         13.6480   -1.2550   23.6480 C.3       1 S87    0.0000
      2 N1         12.2390   -0.8780   23.7570 N.4       1 S87    0.0000
      3 O1          8.9230    1.3970   21.1680 O.2       1 S87    0.0000
      4 C2         11.3880   -1.8230   23.0280 C.3       1 S87    0.0000
      5 N2          9.7480   -0.0820   22.6510 N.am      1 S87    0.0000
      6 C3          9.9340   -1.4380   23.1600 C.3       1 S87    0.0000
      7 N3          6.5800    0.3540   17.8320 N.ar      1 S87    0.0000
      8 C4         10.5730    0.8830   23.3740 C.3       1 S87    0.0000
      9 N4          4.5880    1.5410   18.5160 N.ar      1 S87    0.0000
     10 C5         12.0250    0.4840   23.2600 C.3       1 S87    0.0000
     11 C6          8.9920    0.2440   21.5880 C.2       1 S87    0.0000
     12 N7          8.2360   -0.8750   20.8870 N.am      1 S87    0.0000
     13 C8          7.3660   -0.2900   19.8260 C.ar      1 S87    0.0000
     14 C9          7.5820   -0.3190   18.4810 C.ar      1 S87    0.0000
     15 C10         5.6960    0.8250   18.7560 C.ar      1 S87    0.0000
     16 C11         3.8920    1.8900   19.6050 C.ar      1 S87    0.0000
     17 N5          4.2520    1.5750   20.9130 N.ar      1 S87    0.0000
     18 C13         5.4030    0.8520   21.1410 C.ar      1 S87    0.0000
     19 C14         6.1580    0.4520   20.0330 C.ar      1 S87    0.0000
     20 HN1        11.9784   -0.9041   24.7325 H         1 S87    0.0000
     21 H22        11.5322   -2.8234   23.4360 H         1 S87    0.0000
     22 H23        11.6671   -1.8201   21.9743 H         1 S87    0.0000
     23 H32         9.3199   -2.1307   22.5845 H         1 S87    0.0000
     24 H33         9.6408   -1.4766   24.2091 H         1 S87    0.0000
     25 H42        10.4335    1.8750   22.9444 H         1 S87    0.0000
     26 H43        10.2809    0.8969   24.4240 H         1 S87    0.0000
     27 H52        12.6310    1.1756   23.8453 H         1 S87    0.0000
     28 H53        12.3301    0.5362   22.2149 H         1 S87    0.0000
     29 CL1         8.7669   -1.0014   17.7971 Cl        1 S87    0.0000
     30 H11         2.9848    2.4574   19.4585 H         1 S87    0.0000
     31 H13         5.7129    0.6017   22.1449 H         1 S87    0.0000
     32 HN3         6.5084    0.4802   16.8325 H         1 S87    0.0000
     33 H14        13.7832   -2.2696   24.0227 H         1 S87    0.0000
     34 H15        13.9562   -1.2096   22.6035 H         1 S87    0.0000
     35 H16        14.2549   -0.5666   24.2362 H         1 S87    0.0000
     36 HN7         8.3113   -1.8582   21.1055 H         1 S87    0.0000
@<TRIPOS>BOND
     1    1    2 1
     2    2    4 1
     3    2   10 1
     4    4    6 1
     5   10    8 1
     6    3   11 2
     7   11    5 am
     8   11   12 1
     9    6    5 1
    10    5    8 1
    11    7   14 ar
    12    7   15 ar
    13   14   13 ar
    14   15    9 ar
    15   15   19 ar
    16    9   16 ar
    17   16   17 ar
    18   12   13 1
    19   13   19 ar
    20   19   18 ar
    21   17   18 ar
    22   20    2 1
    23   21    4 1
    24   22    4 1
    25   23    6 1
    26   24    6 1
    27   25    8 1
    28   26    8 1
    29   27   10 1
    30   28   10 1
    31   29   14 1
    32   30   16 1
    33   31   18 1
    34   32    7 1
    35   33    1 1
    36   34    1 1
    37   35    1 1
    38   36   12 1
@<TRIPOS>SUBSTRUCTURE
     1 S87     1 RESIDUE           4 A     S87     0 ROOT
