@<TRIPOS>MOLECULE
Cpptraj Generated mol2 file.
   35    36     1     0     0
SMALL
USER_CHARGES


@<TRIPOS>ATOM
      1 O1          8.7923    0.8763   20.6976 o          1 S27     -0.600100
      2 C1          8.3384   -0.1155   21.2924 c          1 S27      0.768100
      3 N1          9.0890   -0.8325   22.2230 ns         1 S27     -0.461100
      4 C2         10.3701   -0.3212   22.5854 ca         1 S27      0.057600
      5 C3         10.4341    0.8038   23.4121 ca         1 S27     -0.155000
      6 C4         11.6775    1.3307   23.7389 ca         1 S27     -0.108500
      7 C5         12.8327    0.7341   23.2495 ca         1 S27     -0.149000
      8 C6         12.7583   -0.4034   22.4564 ca         1 S27     -0.108500
      9 C7         11.5270   -0.9427   22.1125 ca         1 S27     -0.155000
     10 N2          7.0297   -0.5735   21.0617 ns         1 S27     -0.459100
     11 C8          6.2776    0.1045   20.0630 ca         1 S27     -0.019700
     12 C9          5.1652    0.8622   20.4157 ca         1 S27     -0.214000
     13 C10         4.4395    1.5105   19.4045 ca         1 S27      0.069300
     14 C11         4.8975    1.3489   18.0734 ca         1 S27      0.321200
     15 N3          5.9724    0.6187   17.7310 nb         1 S27     -0.621000
     16 C12         6.6608    0.0053   18.7172 ca         1 S27      0.350200
     17 H1          8.8005   -1.7370   22.5875 hn         1 S27      0.305500
     18 H3          9.5188    1.2712   23.7998 ha         1 S27      0.148500
     19 H4         11.7328    2.2252   24.3747 ha         1 S27      0.134000
     20 H5         13.8071    1.1828   23.4624 ha         1 S27      0.134000
     21 H6         13.6750   -0.8720   22.0816 ha         1 S27      0.134000
     22 H7         11.4645   -1.8314   21.4747 ha         1 S27      0.148500
     23 H2          6.5037   -1.0942   21.7684 hn         1 S27      0.306500
     24 H9          4.8806    0.9478   21.4741 ha         1 S27      0.134000
     25 N4          3.2195    2.1670   19.7058 nh         1 S27     -0.648000
     26 H11         4.3865    1.8555   17.2354 h4         1 S27      0.024100
     27 H12         7.5426   -0.5717   18.4036 h4         1 S27      0.059100
     28 C13         3.0807    2.6517   21.1045 c3         1 S27      0.183100
     29 C14         2.7711    3.2018   18.7434 c3         1 S27      0.183100
     30 H131        2.1299    3.1993   21.2219 h1         1 S27      0.039700
     31 H132        3.0588    1.7977   21.8015 h1         1 S27      0.039700
     32 H133        3.8858    3.3341   21.4279 h1         1 S27      0.039700
     33 H141        1.6645    3.1939   18.7129 h1         1 S27      0.039700
     34 H142        3.1311    3.0340   17.7127 h1         1 S27      0.039700
     35 H143        3.0851    4.2279   19.0026 h1         1 S27      0.039700
@<TRIPOS>BOND
    1    25    28 1
    2    25    29 1
    3    15    16 1
    4    14    15 1
    5    13    14 1
    6    13    25 1
    7    12    13 1
    8    11    12 1
    9    11    16 1
   10    10    11 1
   11     8     9 1
   12     7     8 1
   13     6     7 1
   14     5     6 1
   15     4     5 1
   16     4     9 1
   17     3     4 1
   18     2     3 1
   19     2    10 1
   20     1     2 1
   21    29    33 1
   22    29    34 1
   23    29    35 1
   24    28    30 1
   25    28    31 1
   26    28    32 1
   27    16    27 1
   28    14    26 1
   29    12    24 1
   30    10    23 1
   31     9    22 1
   32     8    21 1
   33     7    20 1
   34     6    19 1
   35     5    18 1
   36     3    17 1
@<TRIPOS>SUBSTRUCTURE
      1 S27               1 ****               0 ****  **** 
