@<TRIPOS>MOLECULE
Cpptraj Generated mol2 file.
   31    33     1     0     0
SMALL
USER_CHARGES


@<TRIPOS>ATOM
      1 O1          8.8444    0.9162   20.7032 o          1 S35     -0.611100
      2 C1          8.3785   -0.0304   21.3599 c          1 S35      0.783100
      3 N1          9.1170   -0.7315   22.3009 ns         1 S35     -0.475100
      4 C2         10.4239   -0.2542   22.6202 ca         1 S35      0.073600
      5 C3         10.5448    0.8875   23.4142 ca         1 S35     -0.163000
      6 C4         11.8122    1.3784   23.6994 ca         1 S35     -0.105500
      7 C5         12.9379    0.7327   23.2016 ca         1 S35     -0.152000
      8 C6         12.8032   -0.4203   22.4364 ca         1 S35     -0.105500
      9 C7         11.5453   -0.9257   22.1324 ca         1 S35     -0.163000
     10 N2          7.0403   -0.4571   21.1744 ns         1 S35     -0.459100
     11 C8          6.3215    0.1245   20.1131 ca         1 S35     -0.070000
     12 C9          5.1295    0.8670   20.3606 ca         1 S35      0.271300
     13 C10         4.4133    1.3721   19.2585 ca         1 S35      0.182000
     14 C11         4.9365    1.1584   17.9461 ca         1 S35      0.356900
     15 N3          6.0636    0.4932   17.7282 nb         1 S35     -0.633000
     16 C12         6.7479   -0.0224   18.8021 ca         1 S35      0.376200
     17 H1          8.7986   -1.6037   22.7214 hn         1 S35      0.317500
     18 H3          9.6563    1.3961   23.8064 ha         1 S35      0.150000
     19 H4         11.9133    2.2833   24.3062 ha         1 S35      0.134000
     20 H5         13.9317    1.1496   23.3846 ha         1 S35      0.134000
     21 H6         13.6929   -0.9273   22.0529 ha         1 S35      0.134000
     22 H7         11.4393   -1.8258   21.5152 ha         1 S35      0.150000
     23 H2          6.5000   -0.8162   21.9671 hn         1 S35      0.331500
     24 H11         4.4185    1.5737   17.0687 h4         1 S35      0.045100
     25 H12         7.6676   -0.5683   18.5407 h4         1 S35      0.068100
     26 N6          4.6923    1.0796   21.6634 nb         1 S35     -0.647000
     27 C14         3.5846    1.7804   21.8152 ca         1 S35      0.310900
     28 C15         2.8213    2.2588   20.6777 ca         1 S35      0.291900
     29 H142        3.2345    1.9730   22.8535 h4         1 S35      0.037100
     30 N5          3.2146    2.0535   19.4349 nb         1 S35     -0.602000
     31 H152        1.8623    2.7978   20.8217 h4         1 S35      0.040100
@<TRIPOS>BOND
    1    28    30 1
    2    27    28 1
    3    26    27 1
    4    15    16 1
    5    14    15 1
    6    13    14 1
    7    13    30 1
    8    12    13 1
    9    12    26 1
   10    11    12 1
   11    11    16 1
   12    10    11 1
   13     8     9 1
   14     7     8 1
   15     6     7 1
   16     5     6 1
   17     4     5 1
   18     4     9 1
   19     3     4 1
   20     2     3 1
   21     2    10 1
   22     1     2 1
   23    28    31 1
   24    27    29 1
   25    16    25 1
   26    14    24 1
   27    10    23 1
   28     9    22 1
   29     8    21 1
   30     7    20 1
   31     6    19 1
   32     5    18 1
   33     3    17 1
@<TRIPOS>SUBSTRUCTURE
      1 S35               1 ****               0 ****  **** 
