@<TRIPOS>MOLECULE
Cpptraj Generated mol2 file.
   38    40     1     0     0
SMALL
USER_CHARGES


@<TRIPOS>ATOM
      1 O1          9.4175    1.2207   20.9595 o          1 S47     -0.585100
      2 C1          8.8352    0.5858   21.8418 c          1 S47      0.664100
      3 C2          9.4383    0.1487   23.1494 c3         1 S47     -0.151400
      4 C3         10.9681    0.0421   23.0423 c3         1 S47     -0.061700
      5 C4         11.3656   -1.0481   22.0427 c3         1 S47     -0.075900
      6 C5         12.5569   -1.8683   22.5167 c3         1 S47     -0.074900
      7 C6         13.6238   -1.0199   23.1904 c3         1 S47     -0.077400
      8 C7         13.0661   -0.1739   24.3389 c3         1 S47     -0.074900
      9 C8         11.5448   -0.2479   24.4236 c3         1 S47     -0.075900
     10 N1          7.4899    0.2578   21.6720 ns         1 S47     -0.457100
     11 C9          6.7773    0.5847   20.4980 ca         1 S47     -0.066000
     12 C10         5.5238    1.2736   20.5939 ca         1 S47      0.266300
     13 C11         4.7550    1.4206   19.4259 ca         1 S47      0.187000
     14 C12         5.3007    0.9884   18.1845 ca         1 S47      0.346900
     15 N2          6.5083    0.4408   18.0906 nb         1 S47     -0.629000
     16 C13         7.2270    0.2192   19.2350 ca         1 S47      0.351200
     17 H22         9.0150   -0.8273   23.5002 hc         1 S47      0.074700
     18 H23         9.1366    0.8657   23.9397 hc         1 S47      0.074700
     19 H3         11.3630    1.0311   22.6891 hc         1 S47      0.065700
     20 H42        10.5219   -1.7471   21.8238 hc         1 S47      0.041450
     21 H43        11.5651   -0.5884   21.0566 hc         1 S47      0.041450
     22 H52        13.0068   -2.4087   21.6503 hc         1 S47      0.041700
     23 H53        12.2270   -2.6803   23.1964 hc         1 S47      0.041700
     24 H62        14.4378   -1.6741   23.5636 hc         1 S47      0.042200
     25 H63        14.1135   -0.3737   22.4420 hc         1 S47      0.042200
     26 H72        13.5332   -0.4861   25.2911 hc         1 S47      0.041700
     27 H73        13.3821    0.8846   24.2128 hc         1 S47      0.041700
     28 H82        11.1646    0.4721   25.1804 hc         1 S47      0.041450
     29 H83        11.2063   -1.2363   24.8004 hc         1 S47      0.041450
     30 H1          6.9184   -0.0633   22.4705 hn         1 S47      0.339500
     31 N6          5.0965    1.7614   21.8186 nb         1 S47     -0.644000
     32 N3          3.4739    1.9616   19.4900 nb         1 S47     -0.604000
     33 H12         4.7329    1.1171   17.2508 h4         1 S47      0.044100
     34 H13         8.1923   -0.2996   19.0847 h4         1 S47      0.071100
     35 C14         3.0616    2.3925   20.6654 ca         1 S47      0.292900
     36 C15         3.8997    2.3219   21.8503 ca         1 S47      0.306900
     37 H142        2.0289    2.7953   20.7181 h4         1 S47      0.039100
     38 H11         3.5334    2.7080   22.8305 h4         1 S47      0.036100
@<TRIPOS>BOND
    1    35    36 1
    2    32    35 1
    3    31    36 1
    4    15    16 1
    5    14    15 1
    6    13    14 1
    7    13    32 1
    8    12    13 1
    9    12    31 1
   10    11    12 1
   11    11    16 1
   12    10    11 1
   13     8     9 1
   14     7     8 1
   15     6     7 1
   16     5     6 1
   17     4     5 1
   18     4     9 1
   19     3     4 1
   20     2     3 1
   21     2    10 1
   22     1     2 1
   23    36    38 1
   24    35    37 1
   25    16    34 1
   26    14    33 1
   27    10    30 1
   28     9    28 1
   29     9    29 1
   30     8    26 1
   31     8    27 1
   32     7    24 1
   33     7    25 1
   34     6    22 1
   35     6    23 1
   36     5    20 1
   37     5    21 1
   38     4    19 1
   39     3    17 1
   40     3    18 1
@<TRIPOS>SUBSTRUCTURE
      1 S47               1 ****               0 ****  **** 
