@<TRIPOS>MOLECULE
Cpptraj Generated mol2 file.
   30    32     1     0     0
SMALL
USER_CHARGES


@<TRIPOS>ATOM
      1 O1          8.7054    1.0882   20.8671 o          1 S32     -0.589100
      2 C1          8.3447    0.0122   21.3717 c          1 S32      0.762100
      3 N1          9.1181   -0.7131   22.2725 ns         1 S32     -0.453100
      4 C2         10.4151   -0.2120   22.5916 ca         1 S32      0.048600
      5 C3         10.5387    0.9625   23.3338 ca         1 S32     -0.151500
      6 C4         11.8122    1.4389   23.6253 ca         1 S32     -0.108500
      7 C5         12.9339    0.7537   23.1733 ca         1 S32     -0.144000
      8 C6         12.7934   -0.4235   22.4457 ca         1 S32     -0.108500
      9 C7         11.5335   -0.9188   22.1463 ca         1 S32     -0.151500
     10 N2          7.0739   -0.5283   21.0700 ns         1 S32     -0.460100
     11 C8          6.3483    0.0439   20.0087 cc         1 S32     -0.022000
     12 N6          5.1879    0.7791   20.3110 na         1 S32      0.002700
     13 C10         4.4197    1.3434   19.2564 cc         1 S32     -0.145600
     14 C11         4.9163    1.2021   17.9133 cc         1 S32      0.449200
     15 N3          6.0051    0.5151   17.6397 nd         1 S32     -0.638000
     16 C12         6.7109   -0.0675   18.6879 cd         1 S32      0.374200
     17 H1          8.9010   -1.6733   22.5351 hn         1 S32      0.308500
     18 H3          9.6541    1.5088   23.6826 ha         1 S32      0.149000
     19 H4         11.9249    2.3654   24.1998 ha         1 S32      0.136500
     20 H5         13.9341    1.1570   23.3656 ha         1 S32      0.136000
     21 H6         13.6787   -0.9542   22.0838 ha         1 S32      0.136500
     22 H7         11.4169   -1.8413   21.5666 ha         1 S32      0.149000
     23 H2          6.6945   -1.3680   21.5132 hn         1 S32      0.311500
     24 N4          3.2934    1.9153   19.7589 nd         1 S32     -0.261600
     25 H11         4.3793    1.6908   17.0925 h4         1 S32      0.055100
     26 H12         7.6039   -0.6446   18.3855 h4         1 S32      0.065100
     27 C14         4.5034    1.0136   21.5017 cc         1 S32     -0.234100
     28 H14         4.8456    0.6956   22.4915 h4         1 S32      0.179000
     29 C13         3.3475    1.7170   21.1344 cd         1 S32      0.017600
     30 H13         2.5532    2.0924   21.7921 h4         1 S32      0.186000
@<TRIPOS>BOND
    1    27    29 1
    2    24    29 1
    3    15    16 1
    4    14    15 1
    5    13    14 1
    6    13    24 1
    7    12    13 1
    8    12    27 1
    9    11    12 1
   10    11    16 1
   11    10    11 1
   12     8     9 1
   13     7     8 1
   14     6     7 1
   15     5     6 1
   16     4     5 1
   17     4     9 1
   18     3     4 1
   19     2     3 1
   20     2    10 1
   21     1     2 1
   22    29    30 1
   23    27    28 1
   24    16    26 1
   25    14    25 1
   26    10    23 1
   27     9    22 1
   28     8    21 1
   29     7    20 1
   30     6    19 1
   31     5    18 1
   32     3    17 1
@<TRIPOS>SUBSTRUCTURE
      1 S32               1 ****               0 ****  **** 
