@<TRIPOS>MOLECULE
Cpptraj Generated mol2 file.
   42    43     1     0     0
SMALL
USER_CHARGES


@<TRIPOS>ATOM
      1 O1          9.2228    1.2372   20.9986 o          1 S39     -0.583100
      2 C1          8.7432    0.4053   21.7712 c          1 S39      0.666100
      3 C2          9.3815   -0.0178   23.0789 c3         1 S39     -0.153400
      4 C3         10.9083   -0.0323   22.9667 c3         1 S39     -0.061700
      5 C4         11.3665   -1.1377   22.0112 c3         1 S39     -0.074900
      6 C5         12.5767   -1.9053   22.5327 c3         1 S39     -0.074900
      7 C6         13.6112   -1.0022   23.1856 c3         1 S39     -0.077400
      8 C7         13.0216   -0.1095   24.2746 c3         1 S39     -0.074900
      9 C8         11.5057   -0.2301   24.3602 c3         1 S39     -0.074900
     10 N1          7.4956   -0.1476   21.5010 ns         1 S39     -0.468100
     11 C9          6.7176    0.3081   20.4054 ca         1 S39     -0.020700
     12 C10         5.4780    0.9138   20.6654 ca         1 S39     -0.212000
     13 C11         4.7231    1.3754   19.5916 ca         1 S39      0.047300
     14 C12         5.2376    1.1791   18.2878 ca         1 S39      0.343200
     15 N2          6.4251    0.5901   18.0321 nb         1 S39     -0.627000
     16 C13         7.1599    0.1671   19.0789 ca         1 S39      0.344200
     17 H22         9.0194   -1.0093   23.4376 hc         1 S39      0.073200
     18 H23         9.0452    0.7051   23.8578 hc         1 S39      0.073200
     19 H3         11.2594    0.9565   22.5760 hc         1 S39      0.067700
     20 H42        10.5517   -1.8626   21.7938 hc         1 S39      0.039450
     21 H43        11.5756   -0.6996   21.0161 hc         1 S39      0.039450
     22 H52        13.0526   -2.4618   21.6987 hc         1 S39      0.041450
     23 H53        12.2542   -2.6932   23.2465 hc         1 S39      0.041450
     24 H62        14.4285   -1.6294   23.6043 hc         1 S39      0.042700
     25 H63        14.1036   -0.3830   22.4104 hc         1 S39      0.042700
     26 H72        13.4812   -0.3554   25.2540 hc         1 S39      0.041450
     27 H73        13.3040    0.9507   24.0915 hc         1 S39      0.041450
     28 H82        11.1024    0.5164   25.0760 hc         1 S39      0.039450
     29 H83        11.2000   -1.2092   24.7816 hc         1 S39      0.039450
     30 H1          7.0490   -0.8081   22.1331 hn         1 S39      0.316500
     31 H10         5.1487    1.0121   21.7092 ha         1 S39      0.133000
     32 N3          3.4181    1.9155   19.7529 nh         1 S39     -0.636000
     33 H12         4.6940    1.5204   17.3959 h4         1 S39      0.027100
     34 H13         8.1197   -0.3115   18.8340 h4         1 S39      0.063100
     35 C14         2.9507    2.1331   21.1467 c3         1 S39      0.172600
     36 C15         3.1506    3.1169   18.9225 c3         1 S39      0.172600
     37 H141        1.9127    2.5143   21.1314 h1         1 S39      0.038200
     38 H142        2.9378    1.1784   21.7003 h1         1 S39      0.038200
     39 H143        3.5436    2.8566   21.7367 h1         1 S39      0.038200
     40 H151        3.6125    3.0501   17.9224 h1         1 S39      0.038200
     41 H152        2.0613    3.2211   18.7647 h1         1 S39      0.038200
     42 H153        3.5143    4.0590   19.3678 h1         1 S39      0.038200
@<TRIPOS>BOND
    1    32    35 1
    2    32    36 1
    3    15    16 1
    4    14    15 1
    5    13    14 1
    6    13    32 1
    7    12    13 1
    8    11    12 1
    9    11    16 1
   10    10    11 1
   11     8     9 1
   12     7     8 1
   13     6     7 1
   14     5     6 1
   15     4     5 1
   16     4     9 1
   17     3     4 1
   18     2     3 1
   19     2    10 1
   20     1     2 1
   21    36    40 1
   22    36    41 1
   23    36    42 1
   24    35    37 1
   25    35    38 1
   26    35    39 1
   27    16    34 1
   28    14    33 1
   29    12    31 1
   30    10    30 1
   31     9    28 1
   32     9    29 1
   33     8    26 1
   34     8    27 1
   35     7    24 1
   36     7    25 1
   37     6    22 1
   38     6    23 1
   39     5    20 1
   40     5    21 1
   41     4    19 1
   42     3    17 1
   43     3    18 1
@<TRIPOS>SUBSTRUCTURE
      1 S39               1 ****               0 ****  **** 
