@<TRIPOS>MOLECULE
Cpptraj Generated mol2 file.
   30    32     1     0     0
SMALL
USER_CHARGES


@<TRIPOS>ATOM
      1 O1          8.7243    0.9509   20.6902 o          1 S33     -0.608100
      2 C1          8.2392    0.0032   21.3300 c          1 S33      0.772100
      3 N1          8.9638   -0.6976   22.2864 ns         1 S33     -0.462100
      4 C2         10.2809   -0.2426   22.5963 ca         1 S33      0.060600
      5 C3         10.4292    0.9183   23.3579 ca         1 S33     -0.157000
      6 C4         11.7084    1.3836   23.6418 ca         1 S33     -0.108500
      7 C5         12.8205    0.6950   23.1695 ca         1 S33     -0.150000
      8 C6         12.6602   -0.4707   22.4271 ca         1 S33     -0.108500
      9 C7         11.3905   -0.9513   22.1311 ca         1 S33     -0.157000
     10 N2          6.9065   -0.4234   21.1100 ns         1 S33     -0.453100
     11 C8          6.2314    0.1583   20.0154 ca         1 S33      0.017300
     12 C9          5.0746    0.9376   20.1840 ca         1 S33      0.037400
     13 C10         4.4982    1.5615   19.0430 ca         1 S33     -0.172500
     14 C11         5.0554    1.3566   17.7671 ca         1 S33      0.376200
     15 N3          6.1292    0.5783   17.6157 nb         1 S33     -0.628000
     16 C12         6.7071    0.0014   18.7150 ca         1 S33      0.352200
     17 H1          8.6459   -1.5814   22.6807 hn         1 S33      0.310500
     18 H3          9.5536    1.4642   23.7260 ha         1 S33      0.149000
     19 H4         11.8301    2.3002   24.2267 ha         1 S33      0.134000
     20 H5         13.8216    1.0856   23.3577 ha         1 S33      0.133000
     21 H6         13.5385   -1.0060   22.0555 ha         1 S33      0.134000
     22 H7         11.2665   -1.8604   21.5320 ha         1 S33      0.149000
     23 H2          6.3396   -0.7889   21.8764 hn         1 S33      0.329500
     24 N4          3.4017    2.2889   19.5092 na         1 S33     -0.276300
     25 H11         4.6531    1.8477   16.8730 h4         1 S33      0.026100
     26 H12         7.6032   -0.5998   18.4948 h4         1 S33      0.065100
     27 N8          4.3332    1.2642   21.3308 nc         1 S33     -0.582100
     28 C13         3.3499    2.0915   20.8961 cd         1 S33      0.429700
     29 H13         2.5770    2.5530   21.5461 h5         1 S33      0.072800
     30 HN4         2.8785    2.9635   18.9575 hn         1 S33      0.311700
@<TRIPOS>BOND
    1    27    28 1
    2    24    28 1
    3    15    16 1
    4    14    15 1
    5    13    14 1
    6    13    24 1
    7    12    13 1
    8    12    27 1
    9    11    12 1
   10    11    16 1
   11    10    11 1
   12     8     9 1
   13     7     8 1
   14     6     7 1
   15     5     6 1
   16     4     5 1
   17     4     9 1
   18     3     4 1
   19     2     3 1
   20     2    10 1
   21     1     2 1
   22    28    29 1
   23    24    30 1
   24    16    26 1
   25    14    25 1
   26    10    23 1
   27     9    22 1
   28     8    21 1
   29     7    20 1
   30     6    19 1
   31     5    18 1
   32     3    17 1
@<TRIPOS>SUBSTRUCTURE
      1 S33               1 ****               0 ****  **** 
