@<TRIPOS>MOLECULE
Cpptraj Generated mol2 file.
   37    39     1     0     0
SMALL
USER_CHARGES


@<TRIPOS>ATOM
      1 O1          9.3255    1.1652   20.9775 o          1 S45     -0.587100
      2 C1          8.7304    0.5060   21.8321 c          1 S45      0.664100
      3 C2          9.3306    0.0523   23.1408 c3         1 S45     -0.152400
      4 C3         10.8607    0.0244   23.0508 c3         1 S45     -0.061700
      5 C4         11.3172   -1.0285   22.0364 c3         1 S45     -0.075900
      6 C5         12.5178   -1.8373   22.5154 c3         1 S45     -0.074900
      7 C6         13.5593   -0.9789   23.2135 c3         1 S45     -0.077400
      8 C7         12.9701   -0.1325   24.3386 c3         1 S45     -0.074900
      9 C8         11.4538   -0.2572   24.4309 c3         1 S45     -0.075900
     10 N1          7.3871    0.1654   21.6235 ns         1 S45     -0.457100
     11 C9          6.7529    0.4876   20.4098 ca         1 S45      0.022300
     12 C10         5.5284    1.1762   20.3821 ca         1 S45      0.032400
     13 C11         4.9442    1.4917   19.1232 ca         1 S45     -0.168500
     14 C12         5.5838    1.1124   17.9344 ca         1 S45      0.368200
     15 N2          6.7454    0.4521   17.9698 nb         1 S45     -0.626000
     16 C13         7.3104    0.1433   19.1720 ca         1 S45      0.335200
     17 H22         8.9427   -0.9466   23.4473 hc         1 S45      0.074200
     18 H23         8.9873    0.7499   23.9368 hc         1 S45      0.074200
     19 H3         11.2198    1.0339   22.7198 hc         1 S45      0.065700
     20 H42        10.5002   -1.7338   21.7732 hc         1 S45      0.041700
     21 H43        11.5373   -0.5296   21.0733 hc         1 S45      0.041700
     22 H52        12.9865   -2.3552   21.6528 hc         1 S45      0.040950
     23 H53        12.1885   -2.6557   23.1906 hc         1 S45      0.040950
     24 H62        14.3665   -1.6327   23.6080 hc         1 S45      0.041200
     25 H63        14.0714   -0.3320   22.4750 hc         1 S45      0.041200
     26 H72        13.4431   -0.4085   25.3020 hc         1 S45      0.040950
     27 H73        13.2462    0.9338   24.1918 hc         1 S45      0.040950
     28 H82        11.0543    0.4497   25.1881 hc         1 S45      0.041700
     29 H83        11.1493   -1.2574   24.8004 hc         1 S45      0.041700
     30 H1          6.7956   -0.1709   22.3854 hn         1 S45      0.337500
     31 N7          4.7120    1.6568   21.4190 nc         1 S45     -0.579100
     32 N3          3.7521    2.1594   19.4047 na         1 S45     -0.277300
     33 H12         5.1834    1.3685   16.9495 h4         1 S45      0.025100
     34 H13         8.2588   -0.4082   19.0987 h4         1 S45      0.065100
     35 C14         3.6651    2.2523   20.8028 cd         1 S45      0.425700
     36 H14         2.8185    2.7366   21.3292 h5         1 S45      0.071800
     37 HN3         3.2036    2.6663   18.7109 hn         1 S45      0.310700
@<TRIPOS>BOND
    1    32    35 1
    2    31    35 1
    3    15    16 1
    4    14    15 1
    5    13    14 1
    6    13    32 1
    7    12    13 1
    8    12    31 1
    9    11    12 1
   10    11    16 1
   11    10    11 1
   12     8     9 1
   13     7     8 1
   14     6     7 1
   15     5     6 1
   16     4     5 1
   17     4     9 1
   18     3     4 1
   19     2     3 1
   20     2    10 1
   21     1     2 1
   22    35    36 1
   23    32    37 1
   24    16    34 1
   25    14    33 1
   26    10    30 1
   27     9    28 1
   28     9    29 1
   29     8    26 1
   30     8    27 1
   31     7    24 1
   32     7    25 1
   33     6    22 1
   34     6    23 1
   35     5    20 1
   36     5    21 1
   37     4    19 1
   38     3    17 1
   39     3    18 1
@<TRIPOS>SUBSTRUCTURE
      1 S45               1 ****               0 ****  **** 
