@<TRIPOS>MOLECULE
Cpptraj Generated mol2 file.
   32    34     1     0     0
SMALL
USER_CHARGES


@<TRIPOS>ATOM
      1 O1          8.8500    1.0023   20.7900 o          1 S29     -0.605100
      2 C1          8.3938    0.0161   21.3925 c          1 S29      0.784100
      3 N1          9.1425   -0.7173   22.3076 ns         1 S29     -0.467100
      4 C2         10.4532   -0.2493   22.6215 ca         1 S29      0.062600
      5 C3         10.5861    0.9069   23.3907 ca         1 S29     -0.157500
      6 C4         11.8585    1.3915   23.6631 ca         1 S29     -0.107000
      7 C5         12.9762    0.7252   23.1765 ca         1 S29     -0.149000
      8 C6         12.8308   -0.4425   22.4366 ca         1 S29     -0.107000
      9 C7         11.5685   -0.9426   22.1482 ca         1 S29     -0.157500
     10 N2          7.0630   -0.3895   21.2005 ns         1 S29     -0.484100
     11 C8          6.3368    0.1848   20.1350 ca         1 S29     -0.022700
     12 C9          5.1744    0.9632   20.3968 ca         1 S29     -0.148300
     13 C10         4.4330    1.4112   19.2896 ca         1 S29      0.290300
     14 C11         4.9319    1.1521   17.9701 ca         1 S29      0.351900
     15 N3          6.0506    0.4835   17.7456 nb         1 S29     -0.636000
     16 C12         6.7460   -0.0111   18.8272 ca         1 S29      0.369200
     17 H1          8.8638   -1.6396   22.6387 hn         1 S29      0.308500
     18 H3          9.7035    1.4344   23.7744 ha         1 S29      0.149000
     19 H4         11.9710    2.3076   24.2533 ha         1 S29      0.135000
     20 H5         13.9732    1.1366   23.3486 ha         1 S29      0.135000
     21 H6         13.7142   -0.9656   22.0600 ha         1 S29      0.135000
     22 H7         11.4520   -1.8535   21.5502 ha         1 S29      0.149000
     23 H2          6.5628   -1.0028   21.8468 hn         1 S29      0.317500
     24 N4          3.2327    2.0875   19.4258 nb         1 S29     -0.638000
     25 H11         4.3945    1.5387   17.0927 h4         1 S29      0.043100
     26 H12         7.6536   -0.5773   18.5645 h4         1 S29      0.062100
     27 C15         4.7251    1.3209   21.6965 ca         1 S29     -0.092000
     28 H15         5.3095    1.0269   22.5788 ha         1 S29      0.130000
     29 C14         3.5736    2.0403   21.8306 ca         1 S29     -0.234300
     30 H14         3.1949    2.3599   22.8132 ha         1 S29      0.147000
     31 C13         2.8339    2.3775   20.6549 ca         1 S29      0.408200
     32 H13         1.8657    2.9109   20.7294 h4         1 S29      0.028100
@<TRIPOS>BOND
    1    29    31 1
    2    27    29 1
    3    24    31 1
    4    15    16 1
    5    14    15 1
    6    13    14 1
    7    13    24 1
    8    12    13 1
    9    12    27 1
   10    11    12 1
   11    11    16 1
   12    10    11 1
   13     8     9 1
   14     7     8 1
   15     6     7 1
   16     5     6 1
   17     4     5 1
   18     4     9 1
   19     3     4 1
   20     2     3 1
   21     2    10 1
   22     1     2 1
   23    31    32 1
   24    29    30 1
   25    27    28 1
   26    16    26 1
   27    14    25 1
   28    10    23 1
   29     9    22 1
   30     8    21 1
   31     7    20 1
   32     6    19 1
   33     5    18 1
   34     3    17 1
@<TRIPOS>SUBSTRUCTURE
      1 S29               1 ****               0 ****  **** 
