@<TRIPOS>MOLECULE
Cpptraj Generated mol2 file.
   29    30     1     0     0
SMALL
USER_CHARGES


@<TRIPOS>ATOM
      1 O1          8.8186    0.8851   20.7203 o          1 S25     -0.599100
      2 C1          8.2917   -0.0221   21.3853 c          1 S25      0.769100
      3 N1          8.9948   -0.7352   22.3488 ns         1 S25     -0.461100
      4 C2         10.3092   -0.2841   22.6813 ca         1 S25      0.056600
      5 C3         10.4422    0.8255   23.5173 ca         1 S25     -0.155000
      6 C4         11.7114    1.3167   23.7927 ca         1 S25     -0.108500
      7 C5         12.8307    0.6970   23.2496 ca         1 S25     -0.148000
      8 C6         12.6873   -0.4304   22.4491 ca         1 S25     -0.108500
      9 C7         11.4263   -0.9309   22.1514 ca         1 S25     -0.155000
     10 N2          6.9391   -0.3765   21.1921 ns         1 S25     -0.459100
     11 C8          6.2798    0.2009   20.0797 ca         1 S25     -0.013700
     12 C9          5.1462    0.9875   20.2533 ca         1 S25     -0.219000
     13 C10         4.5374    1.5345   19.1124 ca         1 S25      0.050300
     14 C11         5.1031    1.2453   17.8463 ca         1 S25      0.316200
     15 N3          6.1972    0.4807   17.6882 nb         1 S25     -0.617000
     16 C12         6.7829   -0.0363   18.7863 ca         1 S25      0.348200
     17 H1          8.6320   -1.5696   22.8030 hn         1 S25      0.306500
     18 H3          9.5593    1.3147   23.9460 ha         1 S25      0.148500
     19 H4         11.8184    2.2029   24.4258 ha         1 S25      0.134500
     20 H5         13.8248    1.1146   23.4258 ha         1 S25      0.134000
     21 H6         13.5737   -0.9202   22.0345 ha         1 S25      0.134500
     22 H7         11.3147   -1.8054   21.4997 ha         1 S25      0.148500
     23 H2          6.3623   -0.7176   21.9632 hn         1 S25      0.306500
     24 H9          4.7526    1.2013   21.2541 ha         1 S25      0.133000
     25 N4          3.3658    2.2631   19.2199 nv         1 S25     -0.814200
     26 H11         4.6968    1.6787   16.9273 h4         1 S25      0.023100
     27 H12         7.6849   -0.6383   18.6067 h4         1 S25      0.061100
     28 H41         3.1919    2.7362   20.0976 hn         1 S25      0.393800
     29 H42         3.0830    2.7990   18.4114 hn         1 S25      0.393800
@<TRIPOS>BOND
    1    15    16 1
    2    14    15 1
    3    13    14 1
    4    13    25 1
    5    12    13 1
    6    11    12 1
    7    11    16 1
    8    10    11 1
    9     8     9 1
   10     7     8 1
   11     6     7 1
   12     5     6 1
   13     4     5 1
   14     4     9 1
   15     3     4 1
   16     2     3 1
   17     2    10 1
   18     1     2 1
   19    25    28 1
   20    25    29 1
   21    16    27 1
   22    14    26 1
   23    12    24 1
   24    10    23 1
   25     9    22 1
   26     8    21 1
   27     7    20 1
   28     6    19 1
   29     5    18 1
   30     3    17 1
@<TRIPOS>SUBSTRUCTURE
      1 S25               1 ****               0 ****  **** 
