@<TRIPOS>MOLECULE
Cpptraj Generated mol2 file.
   31    33     1     0     0
SMALL
USER_CHARGES


@<TRIPOS>ATOM
      1 O1          8.7458    0.9598   20.7157 o          1 S30     -0.602100
      2 C1          8.2447    0.0155   21.3493 c          1 S30      0.767100
      3 N1          8.9639   -0.6904   22.3096 ns         1 S30     -0.461100
      4 C2         10.2834   -0.2416   22.6214 ca         1 S30      0.058600
      5 C3         10.4365    0.9118   23.3924 ca         1 S30     -0.156000
      6 C4         11.7168    1.3742   23.6701 ca         1 S30     -0.108500
      7 C5         12.8256    0.6918   23.1855 ca         1 S30     -0.149000
      8 C6         12.6601   -0.4677   22.4376 ca         1 S30     -0.108500
      9 C7         11.3902   -0.9468   22.1453 ca         1 S30     -0.156000
     10 N2          6.9140   -0.3893   21.1279 ns         1 S30     -0.452100
     11 C8          6.2429    0.1828   20.0220 ca         1 S30     -0.007700
     12 C9          5.0863    0.9596   20.1897 ca         1 S30     -0.113800
     13 C10         4.5162    1.5557   19.0307 ca         1 S30     -0.149500
     14 C11         5.0847    1.3376   17.7617 ca         1 S30      0.371200
     15 N3          6.1669    0.5677   17.6191 nb         1 S30     -0.633000
     16 C12         6.7359    0.0094   18.7321 ca         1 S30      0.353200
     17 H1          8.6396   -1.5653   22.7144 hn         1 S30      0.305500
     18 H3          9.5623    1.4543   23.7714 ha         1 S30      0.148500
     19 H4         11.8415    2.2874   24.2620 ha         1 S30      0.134000
     20 H5         13.8302    1.0828   23.3697 ha         1 S30      0.133000
     21 H6         13.5368   -1.0015   22.0582 ha         1 S30      0.134000
     22 H7         11.2630   -1.8514   21.5403 ha         1 S30      0.148500
     23 H2          6.3506   -0.8389   21.8494 hn         1 S30      0.310500
     24 N4          3.4074    2.2936   19.4308 na         1 S30     -0.180400
     25 H11         4.6869    1.8214   16.8630 h4         1 S30      0.023100
     26 H12         7.6403   -0.5811   18.5247 h4         1 S30      0.059100
     27 C14         4.2943    1.3594   21.3058 cc         1 S30     -0.200200
     28 H14         4.4667    1.0828   22.3400 ha         1 S30      0.152000
     29 C13         3.2931    2.1862   20.8207 cd         1 S30     -0.094100
     30 H13         2.4968    2.7001   21.3747 h4         1 S30      0.169000
     31 HN4         2.9121    2.9481   18.8344 hn         1 S30      0.304700
@<TRIPOS>BOND
    1    27    29 1
    2    24    29 1
    3    15    16 1
    4    14    15 1
    5    13    14 1
    6    13    24 1
    7    12    13 1
    8    12    27 1
    9    11    12 1
   10    11    16 1
   11    10    11 1
   12     8     9 1
   13     7     8 1
   14     6     7 1
   15     5     6 1
   16     4     5 1
   17     4     9 1
   18     3     4 1
   19     2     3 1
   20     2    10 1
   21     1     2 1
   22    29    30 1
   23    27    28 1
   24    24    31 1
   25    16    26 1
   26    14    25 1
   27    10    23 1
   28     9    22 1
   29     8    21 1
   30     7    20 1
   31     6    19 1
   32     5    18 1
   33     3    17 1
@<TRIPOS>SUBSTRUCTURE
      1 S30               1 ****               0 ****  **** 
