@<TRIPOS>MOLECULE
Cpptraj Generated mol2 file.
   32    33     1     0     0
SMALL
USER_CHARGES


@<TRIPOS>ATOM
      1 O1          8.7782    0.9809   20.7372 o          1 S26     -0.599100
      2 C1          8.2661    0.0515   21.3816 c          1 S26      0.768100
      3 N1          8.9809   -0.6703   22.3348 ns         1 S26     -0.461100
      4 C2         10.3051   -0.2356   22.6447 ca         1 S26      0.056600
      5 C3         10.4697    0.9135   23.4209 ca         1 S26     -0.155000
      6 C4         11.7530    1.3687   23.6915 ca         1 S26     -0.108500
      7 C5         12.8548    0.6828   23.1953 ca         1 S26     -0.148000
      8 C6         12.6794   -0.4729   22.4436 ca         1 S26     -0.108500
      9 C7         11.4054   -0.9446   22.1584 ca         1 S26     -0.155000
     10 N2          6.9221   -0.3248   21.1791 ns         1 S26     -0.459100
     11 C8          6.2606    0.2501   20.0628 ca         1 S26     -0.016700
     12 C9          5.1314    1.0463   20.2395 ca         1 S26     -0.213000
     13 C10         4.5222    1.5958   19.1020 ca         1 S26      0.055300
     14 C11         5.0968    1.3023   17.8346 ca         1 S26      0.319200
     15 N3          6.1782    0.5289   17.6727 nb         1 S26     -0.618000
     16 C12         6.7609    0.0054   18.7734 ca         1 S26      0.348200
     17 H1          8.6394   -1.5367   22.7442 hn         1 S26      0.306500
     18 H3          9.6002    1.4587   23.8067 ha         1 S26      0.148500
     19 H4         11.8862    2.2801   24.2838 ha         1 S26      0.134500
     20 H5         13.8617    1.0710   23.3717 ha         1 S26      0.134000
     21 H6         13.5518   -1.0077   22.0540 ha         1 S26      0.134500
     22 H7         11.2688   -1.8461   21.5491 ha         1 S26      0.148500
     23 H2          6.3444   -0.6810   21.9436 hn         1 S26      0.306500
     24 H9          4.7574    1.2511   21.2497 ha         1 S26      0.135000
     25 N4          3.3442    2.3285   19.1675 nu         1 S26     -0.727600
     26 H11         4.6952    1.7422   16.9146 h4         1 S26      0.022100
     27 H12         7.6545   -0.6098   18.5933 h4         1 S26      0.060100
     28 C13         2.9202    2.9046   20.4489 c3         1 S26      0.175100
     29 HN4         3.1320    2.8891   18.3404 hn         1 S26      0.403800
     30 H131        2.0660    3.5877   20.2880 h1         1 S26      0.038367
     31 H132        2.5857    2.1111   21.1443 h1         1 S26      0.038367
     32 H133        3.7015    3.4978   20.9610 h1         1 S26      0.038367
@<TRIPOS>BOND
    1    25    28 1
    2    15    16 1
    3    14    15 1
    4    13    14 1
    5    13    25 1
    6    12    13 1
    7    11    12 1
    8    11    16 1
    9    10    11 1
   10     8     9 1
   11     7     8 1
   12     6     7 1
   13     5     6 1
   14     4     5 1
   15     4     9 1
   16     3     4 1
   17     2     3 1
   18     2    10 1
   19     1     2 1
   20    28    30 1
   21    28    31 1
   22    28    32 1
   23    25    29 1
   24    16    27 1
   25    14    26 1
   26    12    24 1
   27    10    23 1
   28     9    22 1
   29     8    21 1
   30     7    20 1
   31     6    19 1
   32     5    18 1
   33     3    17 1
@<TRIPOS>SUBSTRUCTURE
      1 S26               1 ****               0 ****  **** 
