@<TRIPOS>MOLECULE
Cpptraj Generated mol2 file.
   36    37     1     0     0
SMALL
USER_CHARGES


@<TRIPOS>ATOM
      1 O1          9.3166    1.1526   20.9975 o          1 S37     -0.581100
      2 C1          8.7307    0.4501   21.8317 c          1 S37      0.666100
      3 C2          9.3418   -0.0018   23.1401 c3         1 S37     -0.153400
      4 C3         10.8712    0.0085   23.0538 c3         1 S37     -0.061700
      5 C4         11.3513   -1.0227   22.0296 c3         1 S37     -0.074900
      6 C5         12.5453   -1.8347   22.5167 c3         1 S37     -0.074900
      7 C6         13.5808   -0.9795   23.2303 c3         1 S37     -0.077400
      8 C7         12.9799   -0.1228   24.3430 c3         1 S37     -0.074900
      9 C8         11.4670   -0.2674   24.4328 c3         1 S37     -0.074900
     10 N1          7.4077    0.0741   21.6079 ns         1 S37     -0.468100
     11 C9          6.7492    0.4229   20.4079 ca         1 S37     -0.006700
     12 C10         5.5304    1.0883   20.4535 ca         1 S37     -0.225000
     13 C11         4.9106    1.4319   19.2418 ca         1 S37      0.052300
     14 C12         5.5496    1.0601   18.0366 ca         1 S37      0.309200
     15 N2          6.7246    0.4095   17.9965 nb         1 S37     -0.615000
     16 C13         7.3234    0.0999   19.1622 ca         1 S37      0.331200
     17 H22         8.9785   -1.0111   23.4414 hc         1 S37      0.073200
     18 H23         8.9809    0.6828   23.9422 hc         1 S37      0.073200
     19 H3         11.2063    1.0291   22.7306 hc         1 S37      0.067700
     20 H42        10.5435   -1.7268   21.7341 hc         1 S37      0.039700
     21 H43        11.5899   -0.5055   21.0821 hc         1 S37      0.039700
     22 H52        13.0249   -2.3491   21.6580 hc         1 S37      0.041700
     23 H53        12.2090   -2.6568   23.1836 hc         1 S37      0.041700
     24 H62        14.3781   -1.6375   23.6418 hc         1 S37      0.042700
     25 H63        14.1074   -0.3365   22.4954 hc         1 S37      0.042700
     26 H72        13.4549   -0.3800   25.3108 hc         1 S37      0.041700
     27 H73        13.2420    0.9445   24.1804 hc         1 S37      0.041700
     28 H82        11.0556    0.4315   25.1897 hc         1 S37      0.039700
     29 H83        11.1739   -1.2716   24.7990 hc         1 S37      0.039700
     30 H1          6.8495   -0.3719   22.3386 hn         1 S37      0.317500
     31 H10         5.0584    1.3404   21.4148 ha         1 S37      0.132000
     32 N3          3.6792    2.0665   19.2301 nv         1 S37     -0.814200
     33 H12         5.1218    1.3096   17.0584 h4         1 S37      0.022100
     34 H13         8.2847   -0.4267   19.0776 h4         1 S37      0.063100
     35 H31         3.4332    2.6204   20.0377 hn         1 S37      0.392800
     36 H32         3.3787    2.4672   18.3469 hn         1 S37      0.392800
@<TRIPOS>BOND
    1    15    16 1
    2    14    15 1
    3    13    14 1
    4    13    32 1
    5    12    13 1
    6    11    12 1
    7    11    16 1
    8    10    11 1
    9     8     9 1
   10     7     8 1
   11     6     7 1
   12     5     6 1
   13     4     5 1
   14     4     9 1
   15     3     4 1
   16     2     3 1
   17     2    10 1
   18     1     2 1
   19    32    35 1
   20    32    36 1
   21    16    34 1
   22    14    33 1
   23    12    31 1
   24    10    30 1
   25     9    28 1
   26     9    29 1
   27     8    26 1
   28     8    27 1
   29     7    24 1
   30     7    25 1
   31     6    22 1
   32     6    23 1
   33     5    20 1
   34     5    21 1
   35     4    19 1
   36     3    17 1
   37     3    18 1
@<TRIPOS>SUBSTRUCTURE
      1 S37               1 ****               0 ****  **** 
