@<TRIPOS>MOLECULE
Cpptraj Generated mol2 file.
   38    40     1     0     0
SMALL
USER_CHARGES


@<TRIPOS>ATOM
      1 O1          9.3041    1.1886   20.9974 o          1 S42     -0.585100
      2 C1          8.7242    0.4647   21.8150 c          1 S42      0.664100
      3 C2          9.3287    0.0162   23.1277 c3         1 S42     -0.153400
      4 C3         10.8577    0.0080   23.0407 c3         1 S42     -0.061700
      5 C4         11.3285   -1.0404   22.0280 c3         1 S42     -0.075900
      6 C5         12.5308   -1.8426   22.5146 c3         1 S42     -0.074900
      7 C6         13.5646   -0.9787   23.2175 c3         1 S42     -0.077400
      8 C7         12.9665   -0.1285   24.3349 c3         1 S42     -0.074900
      9 C8         11.4515   -0.2640   24.4222 c3         1 S42     -0.075900
     10 N1          7.4111    0.0652   21.5725 ns         1 S42     -0.461100
     11 C9          6.7669    0.4095   20.3654 ca         1 S42      0.002300
     12 C10         5.5201    1.0597   20.3860 ca         1 S42     -0.119800
     13 C11         4.9442    1.4331   19.1379 ca         1 S42     -0.145500
     14 C12         5.5942    1.1267   17.9359 ca         1 S42      0.363200
     15 N2          6.7684    0.4898   17.9314 nb         1 S42     -0.629000
     16 C13         7.3388    0.1400   19.1249 ca         1 S42      0.333200
     17 H22         8.9551   -0.9868   23.4373 hc         1 S42      0.072700
     18 H23         8.9757    0.7106   23.9221 hc         1 S42      0.072700
     19 H3         11.2076    1.0210   22.7093 hc         1 S42      0.067700
     20 H42        10.5180   -1.7508   21.7566 hc         1 S42      0.039950
     21 H43        11.5522   -0.5379   21.0679 hc         1 S42      0.039950
     22 H52        13.0070   -2.3589   21.6554 hc         1 S42      0.041200
     23 H53        12.2016   -2.6625   23.1886 hc         1 S42      0.041200
     24 H62        14.3704   -1.6287   23.6202 hc         1 S42      0.042200
     25 H63        14.0804   -0.3335   22.4795 hc         1 S42      0.042200
     26 H72        13.4388   -0.3948   25.3016 hc         1 S42      0.041200
     27 H73        13.2365    0.9386   24.1827 hc         1 S42      0.041200
     28 H82        11.0450    0.4421   25.1765 hc         1 S42      0.039950
     29 H83        11.1544   -1.2649   24.7956 hc         1 S42      0.039950
     30 H1          6.8522   -0.4146   22.2801 hn         1 S42      0.320500
     31 C15         4.6284    1.4901   21.4131 cc         1 S42     -0.197200
     32 N3          3.7335    2.0682   19.4034 na         1 S42     -0.181400
     33 H12         5.1866    1.4225   16.9639 h4         1 S42      0.021100
     34 H13         8.3047   -0.3765   19.0263 h4         1 S42      0.061100
     35 C14         3.5609    2.1166   20.7941 cd         1 S42     -0.098100
     36 H14         2.6802    2.5851   21.2475 h4         1 S42      0.168000
     37 H15         4.7706    1.3400   22.4795 ha         1 S42      0.152000
     38 HN3         3.2045    2.5821   18.7064 hn         1 S42      0.303700
@<TRIPOS>BOND
    1    32    35 1
    2    31    35 1
    3    15    16 1
    4    14    15 1
    5    13    14 1
    6    13    32 1
    7    12    13 1
    8    12    31 1
    9    11    12 1
   10    11    16 1
   11    10    11 1
   12     8     9 1
   13     7     8 1
   14     6     7 1
   15     5     6 1
   16     4     5 1
   17     4     9 1
   18     3     4 1
   19     2     3 1
   20     2    10 1
   21     1     2 1
   22    35    36 1
   23    32    38 1
   24    31    37 1
   25    16    34 1
   26    14    33 1
   27    10    30 1
   28     9    28 1
   29     9    29 1
   30     8    26 1
   31     8    27 1
   32     7    24 1
   33     7    25 1
   34     6    22 1
   35     6    23 1
   36     5    20 1
   37     5    21 1
   38     4    19 1
   39     3    17 1
   40     3    18 1
@<TRIPOS>SUBSTRUCTURE
      1 S42               1 ****               0 ****  **** 
