@<TRIPOS>MOLECULE
Cpptraj Generated mol2 file.
   27    28     1     0     0
SMALL
USER_CHARGES


@<TRIPOS>ATOM
      1 O1          8.7745    0.9251   20.7059 o          1 S24     -0.603100
      2 C1          8.2561    0.0170   21.3789 c          1 S24      0.767100
      3 N1          8.9629   -0.6810   22.3501 ns         1 S24     -0.459100
      4 C2         10.2842   -0.2355   22.6649 ca         1 S24      0.055600
      5 C3         10.4375    0.8914   23.4726 ca         1 S24     -0.154500
      6 C4         11.7161    1.3586   23.7462 ca         1 S24     -0.108500
      7 C5         12.8233    0.7037   23.2213 ca         1 S24     -0.148000
      8 C6         12.6592   -0.4361   22.4434 ca         1 S24     -0.108500
      9 C7         11.3887   -0.9147   22.1508 ca         1 S24     -0.154500
     10 N2          6.9089   -0.3584   21.1817 ns         1 S24     -0.458100
     11 C8          6.2440    0.1919   20.0608 ca         1 S24     -0.055700
     12 C9          5.0486    0.9034   20.2056 ca         1 S24     -0.147000
     13 C10         4.4481    1.4210   19.0659 ca         1 S24     -0.223300
     14 C11         5.0640    1.2210   17.8258 ca         1 S24      0.372200
     15 N3          6.2095    0.5210   17.6681 nb         1 S24     -0.646000
     16 C12         6.7880    0.0140   18.7758 ca         1 S24      0.395200
     17 H1          8.5988   -1.5044   22.8262 hn         1 S24      0.306500
     18 H3          9.5627    1.4090   23.8878 ha         1 S24      0.148500
     19 H4         11.8401    2.2544   24.3631 ha         1 S24      0.135000
     20 H5         13.8265    1.0986   23.4008 ha         1 S24      0.134000
     21 H6         13.5358   -0.9527   22.0404 ha         1 S24      0.135000
     22 H7         11.2606   -1.8039   21.5203 ha         1 S24      0.148500
     23 H2          6.3352   -0.7236   21.9444 hn         1 S24      0.307500
     24 H9          4.5941    1.0711   21.1905 ha         1 S24      0.134000
     25 H10         3.5275    2.0089   19.1358 ha         1 S24      0.143000
     26 H11         4.6476    1.6598   16.9124 h4         1 S24      0.024100
     27 H12         7.7227   -0.5447   18.6090 h4         1 S24      0.060100
@<TRIPOS>BOND
    1    15    16 1
    2    14    15 1
    3    13    14 1
    4    12    13 1
    5    11    12 1
    6    11    16 1
    7    10    11 1
    8     8     9 1
    9     7     8 1
   10     6     7 1
   11     5     6 1
   12     4     5 1
   13     4     9 1
   14     3     4 1
   15     2     3 1
   16     2    10 1
   17     1     2 1
   18    16    27 1
   19    14    26 1
   20    13    25 1
   21    12    24 1
   22    10    23 1
   23     9    22 1
   24     8    21 1
   25     7    20 1
   26     6    19 1
   27     5    18 1
   28     3    17 1
@<TRIPOS>SUBSTRUCTURE
      1 S24               1 ****               0 ****  **** 
