@<TRIPOS>MOLECULE
S79
   34    35     1     0     0
SMALL
bcc


@<TRIPOS>ATOM
      1 O1           9.2620     1.2110    20.9780 o          1 S79      -0.588100
      2 C1           8.6990     0.5010    21.8200 c          1 S79       0.669100
      3 C2           9.3190     0.0940    23.1380 c3         1 S79      -0.152400
      4 C3          10.8450     0.0290    23.0260 c3         1 S79      -0.061700
      5 C4          11.2620    -1.0660    22.0400 c3         1 S79      -0.075900
      6 C5          12.4780    -1.8570    22.5100 c3         1 S79      -0.074900
      7 C6          13.5300    -0.9810    23.1710 c3         1 S79      -0.077400
      8 C7          12.9650    -0.1320    24.3080 c3         1 S79      -0.074900
      9 C8          11.4470    -0.2290    24.4070 c3         1 S79      -0.075900
     10 N1           7.3930     0.0740    21.5970 ns         1 S79      -0.467100
     11 C9           6.7060     0.3930    20.4040 ca         1 S79      -0.022700
     12 C10          5.4190     0.9380    20.4580 ca         1 S79      -0.121000
     13 C11          4.7790     1.2450    19.2660 ca         1 S79      -0.216300
     14 C12          5.4400     0.9950    18.0600 ca         1 S79       0.373200
     15 N2           6.6760     0.4560    17.9870 nb         1 S79      -0.630000
     16 C13          7.2970     0.1550    19.1470 ca         1 S79       0.434300
     17 H22          8.9210    -0.8790    23.5080 hc         1 S79       0.075200
     18 H23          9.0050     0.8390    23.9040 hc         1 S79       0.075200
     19 H3          11.2260     1.0180    22.6600 hc         1 S79       0.065700
     20 H42         10.4340    -1.7780    21.8350 hc         1 S79       0.040700
     21 H43         11.4480    -0.6100    21.0490 hc         1 S79       0.040700
     22 H52         12.9320    -2.3900    21.6490 hc         1 S79       0.042450
     23 H53         12.1660    -2.6640    23.2070 hc         1 S79       0.042450
     24 H62         14.3550    -1.6230    23.5490 hc         1 S79       0.042200
     25 H63         14.0120    -0.3340    22.4110 hc         1 S79       0.042200
     26 H72         13.4330    -0.4280    25.2690 hc         1 S79       0.042450
     27 H73         13.2620     0.9290    24.1680 hc         1 S79       0.042450
     28 H82         11.0630     0.4990    25.1510 hc         1 S79       0.040700
     29 H83         11.1290    -1.2160    24.8000 hc         1 S79       0.040700
     30 H1           6.8510    -0.3890    22.3310 hn         1 S79       0.331500
     31 H10          4.9180     1.1260    21.4180 ha         1 S79       0.185000
     32 H11          3.7870     1.7030    19.2690 ha         1 S79       0.151000
     33 H12          4.9800     1.2480    17.1000 h4         1 S79       0.030100
     34 Cl1          8.6850    -0.4710    19.0080 cl         1 S79      -0.168000
@<TRIPOS>BOND
     1     1     2 2   
     2     2     3 1   
     3     2    10 1   
     4     3     4 1   
     5     3    17 1   
     6     3    18 1   
     7     4     5 1   
     8     4     9 1   
     9     4    19 1   
    10     5     6 1   
    11     5    20 1   
    12     5    21 1   
    13     6     7 1   
    14     6    22 1   
    15     6    23 1   
    16     7     8 1   
    17     7    24 1   
    18     7    25 1   
    19     8     9 1   
    20     8    26 1   
    21     8    27 1   
    22     9    28 1   
    23     9    29 1   
    24    10    11 1   
    25    10    30 1   
    26    11    12 ar  
    27    11    16 ar  
    28    12    13 ar  
    29    12    31 1   
    30    13    14 ar  
    31    13    32 1   
    32    14    15 ar  
    33    14    33 1   
    34    15    16 ar  
    35    16    34 1   
@<TRIPOS>SUBSTRUCTURE
     1 S79         1 TEMP              0 ****  ****    0 ROOT
