@<TRIPOS>MOLECULE
Cpptraj Generated mol2 file.
   37    39     1     0     0
SMALL
USER_CHARGES


@<TRIPOS>ATOM
      1 C1         13.6897   -1.5728   23.3963 c3         1 S81      0.085100
      2 N1         12.2426   -1.1451   23.5535 nx         1 S81     -0.674400
      3 O1          8.8225    1.4553   21.1820 o          1 S81     -0.660100
      4 C2         11.3424   -2.0432   22.7015 c3         1 S81      0.065800
      5 N2          9.7745   -0.2005   22.4674 n          1 S81     -0.398800
      6 C3          9.8781   -1.6022   22.9033 c3         1 S81      0.029000
      7 N3          6.0866    0.1077   17.9610 na         1 S81     -0.270100
      8 C4         10.5912    0.7216   23.2667 c3         1 S81      0.029000
      9 N4          4.1400    1.4369   18.6976 nb         1 S81     -0.653000
     10 C5         12.0759    0.3148   23.1294 c3         1 S81      0.065800
     11 C6          8.8605    0.2612   21.5142 c          1 S81      0.709100
     12 N7          7.9952   -0.6712   20.9455 ns         1 S81     -0.373100
     13 C8          7.0928   -0.2236   19.9690 cc         1 S81     -0.048600
     14 C9          7.1980   -0.4562   18.6008 cd         1 S81     -0.087100
     15 C10         5.3073    0.7404   18.9232 ca         1 S81      0.437800
     16 C11         3.5705    1.9110   19.8154 ca         1 S81      0.428200
     17 C12         4.0798    1.7310   21.1278 ca         1 S81     -0.257300
     18 C13         5.2578    1.0414   21.3296 ca         1 S81     -0.055000
     19 C14         5.9060    0.5330   20.2021 ca         1 S81     -0.213100
     20 HN1        11.9441   -1.2542   24.5650 hn         1 S81      0.441800
     21 H22        11.4801   -3.1197   22.9865 hx         1 S81      0.120700
     22 H23        11.6381   -1.9862   21.6218 hx         1 S81      0.120700
     23 H32         9.2203   -2.3002   22.3254 h1         1 S81      0.100200
     24 H33         9.5420   -1.7210   23.9679 h1         1 S81      0.100200
     25 H42        10.4878    1.7836   22.9403 h1         1 S81      0.100200
     26 H43        10.2545    0.7254   24.3344 h1         1 S81      0.100200
     27 H52        12.7245    0.9869   23.7491 hx         1 S81      0.120700
     28 H53        12.4464    0.4540   22.0825 hx         1 S81      0.120700
     29 H9          7.9478   -1.0290   18.0569 h4         1 S81      0.198000
     30 H11         2.6363    2.4647   19.6510 h4         1 S81      0.037100
     31 H12         3.5150    2.1530   21.9749 ha         1 S81      0.154000
     32 H13         5.6712    0.8850   22.3361 ha         1 S81      0.133000
     33 HN3         5.9578    0.1214   16.9516 hn         1 S81      0.324700
     34 H14        13.8430   -2.6065   23.7693 hx         1 S81      0.106033
     35 H15        14.0114   -1.5426   22.3374 hx         1 S81      0.106033
     36 H16        14.3686   -0.9229   23.9834 hx         1 S81      0.106033
     37 HN7         8.1494   -1.6790   20.9956 hn         1 S81      0.350500
@<TRIPOS>BOND
    1    18    19 1
    2    17    18 1
    3    16    17 1
    4    15    19 1
    5    13    14 1
    6    13    19 1
    7    12    13 1
    8    11    12 1
    9     9    15 1
   10     9    16 1
   11     8    10 1
   12     7    14 1
   13     7    15 1
   14     5    11 1
   15     5     6 1
   16     5     8 1
   17     4     6 1
   18     3    11 1
   19     2     4 1
   20     2    10 1
   21     1     2 1
   22    18    32 1
   23    17    31 1
   24    16    30 1
   25    14    29 1
   26    12    37 1
   27    10    27 1
   28    10    28 1
   29     8    25 1
   30     8    26 1
   31     7    33 1
   32     6    23 1
   33     6    24 1
   34     4    21 1
   35     4    22 1
   36     2    20 1
   37     1    34 1
   38     1    35 1
   39     1    36 1
@<TRIPOS>SUBSTRUCTURE
      1 S81               1 ****               0 ****  **** 
