@<TRIPOS>MOLECULE
Cpptraj Generated mol2 file.
   36    38     1     0     0
SMALL
USER_CHARGES


@<TRIPOS>ATOM
      1 C1         13.6821   -1.4018   23.5705 c3         1 S85      0.085100
      2 N1         12.2249   -0.9958   23.6928 nx         1 S85     -0.674400
      3 O1          8.9614    1.4111   21.0751 o          1 S85     -0.624100
      4 C2         11.3414   -1.9586   22.8896 c3         1 S85      0.064800
      5 N2          9.7334   -0.1546   22.5735 n          1 S85     -0.400800
      6 C3          9.8678   -1.5331   23.0594 c3         1 S85      0.028000
      7 N3          6.3126    0.1815   17.8445 na         1 S85     -0.287100
      8 C4         10.5478    0.8230   23.3052 c3         1 S85      0.028000
      9 N4          4.3334    1.4620   18.5839 nb         1 S85     -0.674000
     10 C5         12.0367    0.4354   23.1831 c3         1 S85      0.064800
     11 C6          8.9450    0.2375   21.4961 c          1 S85      0.718100
     12 N7          8.1026   -0.7160   20.9100 ns         1 S85     -0.394100
     13 C8          7.2293   -0.2773   19.9150 cc         1 S85     -0.047600
     14 C9          7.3761   -0.4221   18.5405 cd         1 S85      0.203400
     15 C10         5.4949    0.7610   18.8118 ca         1 S85      0.469800
     16 C11         3.7381    1.8625   19.7282 ca         1 S85      0.655900
     17 N5          4.1564    1.6222   21.0229 nb         1 S85     -0.690000
     18 C13         5.2943    0.9391   21.2117 ca         1 S85      0.474200
     19 C14         6.0318    0.4823   20.1049 ca         1 S85     -0.322400
     20 HN1        11.9233   -1.0521   24.7066 hn         1 S85      0.441800
     21 H22        11.5008   -3.0140   23.2413 hx         1 S85      0.121200
     22 H23        11.6444   -1.9623   21.8121 hx         1 S85      0.121200
     23 H32         9.2215   -2.2673   22.5185 h1         1 S85      0.101450
     24 H33         9.5217   -1.5976   24.1255 h1         1 S85      0.101450
     25 H42        10.4221    1.8686   22.9299 h1         1 S85      0.101450
     26 H43        10.2051    0.8696   24.3716 h1         1 S85      0.101450
     27 H52        12.6812    1.1584   23.7486 hx         1 S85      0.121200
     28 H53        12.3908    0.5106   22.1261 hx         1 S85      0.121200
     29 F1          8.2969   -1.0798   17.8655 f          1 S85     -0.118500
     30 H11         2.8054    2.4500   19.6157 h5         1 S85      0.073100
     31 H13         5.6050    0.7397   22.2559 h4         1 S85      0.028100
     32 HN3         6.2332    0.2481   16.8268 hn         1 S85      0.336700
     33 H14        13.8598   -2.4206   23.9834 hx         1 S85      0.106700
     34 H15        14.0171   -1.4042   22.5153 hx         1 S85      0.106700
     35 H16        14.3431   -0.7117   24.1324 hx         1 S85      0.106700
     36 HN7         8.2326   -1.7225   21.0180 hn         1 S85      0.350500
@<TRIPOS>BOND
    1    18    19 1
    2    17    18 1
    3    16    17 1
    4    15    19 1
    5    14    29 1
    6    13    14 1
    7    13    19 1
    8    12    13 1
    9    11    12 1
   10     9    15 1
   11     9    16 1
   12     8    10 1
   13     7    14 1
   14     7    15 1
   15     5    11 1
   16     5     6 1
   17     5     8 1
   18     4     6 1
   19     3    11 1
   20     2     4 1
   21     2    10 1
   22     1     2 1
   23    18    31 1
   24    16    30 1
   25    12    36 1
   26    10    27 1
   27    10    28 1
   28     8    25 1
   29     8    26 1
   30     7    32 1
   31     6    23 1
   32     6    24 1
   33     4    21 1
   34     4    22 1
   35     2    20 1
   36     1    33 1
   37     1    34 1
   38     1    35 1
@<TRIPOS>SUBSTRUCTURE
      1 S85               1 ****               0 ****  **** 
