@<TRIPOS>MOLECULE
Cpptraj Generated mol2 file.
   37    39     1     0     0
SMALL
USER_CHARGES


@<TRIPOS>ATOM
      1 C1         13.6574   -1.4831   23.4768 c3         1 S89      0.085100
      2 N1         12.2006   -1.0777   23.6090 nx         1 S89     -0.674400
      3 O1          8.8468    1.3974   21.0902 o          1 S89     -0.628100
      4 C2         11.3229   -2.0148   22.7734 c3         1 S89      0.064300
      5 N2          9.7210   -0.2083   22.4886 n          1 S89     -0.402800
      6 C3          9.8496   -1.5964   22.9495 c3         1 S89      0.028500
      7 N3          6.1403    0.0140   17.8664 na         1 S89     -0.263100
      8 C4         10.5233    0.7555   23.2514 c3         1 S89      0.028500
      9 N4          4.2386    1.4217   18.5759 nb         1 S89     -0.649000
     10 C5         12.0139    0.3684   23.1471 c3         1 S89      0.064300
     11 C6          8.8668    0.2126   21.4665 c          1 S89      0.719100
     12 N7          8.0208   -0.7445   20.8894 ns         1 S89     -0.394100
     13 C8          7.1248   -0.3158   19.9086 cc         1 S89     -0.041600
     14 C9          7.1976   -0.5869   18.5496 cd         1 S89      0.067300
     15 C10         5.3841    0.7030   18.8176 ca         1 S89      0.441800
     16 C11         3.6727    1.9173   19.6880 ca         1 S89      0.428200
     17 C12         4.1620    1.7395   21.0086 ca         1 S89     -0.253300
     18 C13         5.3232    1.0321   21.2277 ca         1 S89     -0.057000
     19 C14         5.9653    0.4981   20.1050 ca         1 S89     -0.198100
     20 HN1        11.8982   -1.1679   24.6217 hn         1 S89      0.440800
     21 H22        11.4795   -3.0799   23.0947 hx         1 S89      0.120950
     22 H23        11.6260   -1.9899   21.6954 hx         1 S89      0.120950
     23 H32         9.2066   -2.3199   22.3888 h1         1 S89      0.099950
     24 H33         9.5026   -1.6867   24.0137 h1         1 S89      0.099950
     25 H42        10.4051    1.8063   22.8909 h1         1 S89      0.099950
     26 H43        10.1693    0.7856   24.3144 h1         1 S89      0.099950
     27 H52        12.6443    1.0684   23.7544 hx         1 S89      0.120950
     28 H53        12.3915    0.4828   22.1038 hx         1 S89      0.120950
     29 Cl1         8.2714   -1.5826   17.7815 cl         1 S89     -0.021400
     30 H11         2.7513    2.4967   19.5084 h4         1 S89      0.039100
     31 HN3         6.0450    0.0296   16.8528 hn         1 S89      0.332700
     32 H14        13.8328   -2.5071   23.8777 hx         1 S89      0.106033
     33 H15        13.9912   -1.4771   22.4215 hx         1 S89      0.106033
     34 H16        14.3211   -0.8012   24.0453 hx         1 S89      0.106033
     35 H12         3.5974    2.1721   21.8463 ha         1 S89      0.155000
     36 HN7         8.1905   -1.7527   20.9571 hn         1 S89      0.348500
     37 H13         5.7278    0.8657   22.2361 ha         1 S89      0.136000
@<TRIPOS>BOND
    1    18    19 1
    2    17    18 1
    3    16    17 1
    4    15    19 1
    5    14    29 1
    6    13    14 1
    7    13    19 1
    8    12    13 1
    9    11    12 1
   10     9    15 1
   11     9    16 1
   12     8    10 1
   13     7    14 1
   14     7    15 1
   15     5    11 1
   16     5     6 1
   17     5     8 1
   18     4     6 1
   19     3    11 1
   20     2     4 1
   21     2    10 1
   22     1     2 1
   23    18    37 1
   24    17    35 1
   25    16    30 1
   26    12    36 1
   27    10    27 1
   28    10    28 1
   29     8    25 1
   30     8    26 1
   31     7    31 1
   32     6    23 1
   33     6    24 1
   34     4    21 1
   35     4    22 1
   36     2    20 1
   37     1    32 1
   38     1    33 1
   39     1    34 1
@<TRIPOS>SUBSTRUCTURE
      1 S89               1 ****               0 ****  **** 
