@<TRIPOS>MOLECULE
Cpptraj Generated mol2 file.
   36    38     1     0     0
SMALL
USER_CHARGES


@<TRIPOS>ATOM
      1 C1         13.6851   -1.5694   23.4028 c3         1 S82      0.085100
      2 N1         12.2377   -1.1362   23.5566 nx         1 S82     -0.674400
      3 O1          8.8292    1.4810   21.1952 o          1 S82     -0.655100
      4 C2         11.3381   -2.0315   22.7015 c3         1 S82      0.065800
      5 N2          9.7807   -0.1899   22.4645 n          1 S82     -0.398800
      6 C3          9.8742   -1.5903   22.9011 c3         1 S82      0.029000
      7 N3          6.0899    0.1309   17.9489 na         1 S82     -0.265100
      8 C4         10.5957    0.7359   23.2630 c3         1 S82      0.029000
      9 N4          4.1392    1.4472   18.7209 nb         1 S82     -0.679000
     10 C5         12.0781    0.3251   23.1324 c3         1 S82      0.065800
     11 C6          8.8698    0.2810   21.5171 c          1 S82      0.713100
     12 N7          8.0086   -0.6543   20.9281 ns         1 S82     -0.379100
     13 C8          7.1097   -0.2086   19.9520 cc         1 S82     -0.022600
     14 C9          7.1938   -0.4469   18.5875 cd         1 S82     -0.094100
     15 C10         5.3195    0.7672   18.9131 ca         1 S82      0.460800
     16 C11         3.5980    1.8955   19.8727 ca         1 S82      0.655900
     17 N5          4.0933    1.7345   21.1526 nb         1 S82     -0.696000
     18 C13         5.2491    1.0735   21.3085 ca         1 S82      0.478200
     19 C14         5.9285    0.5606   20.1894 ca         1 S82     -0.344400
     20 HN1        11.9414   -1.2462   24.5724 hn         1 S82      0.442800
     21 H22        11.4769   -3.1077   22.9882 hx         1 S82      0.121200
     22 H23        11.6316   -1.9788   21.6234 hx         1 S82      0.121200
     23 H32         9.2169   -2.2892   22.3263 h1         1 S82      0.101200
     24 H33         9.5313   -1.7011   23.9648 h1         1 S82      0.101200
     25 H42        10.4927    1.8002   22.9365 h1         1 S82      0.101200
     26 H43        10.2505    0.7390   24.3287 h1         1 S82      0.101200
     27 H52        12.7250    0.9960   23.7544 hx         1 S82      0.121200
     28 H53        12.4479    0.4598   22.0875 hx         1 S82      0.121200
     29 H9          7.9391   -1.0176   18.0313 h4         1 S82      0.202000
     30 H11         2.6449    2.4538   19.7866 h5         1 S82      0.070100
     31 H13         5.6174    0.9364   22.3424 h4         1 S82      0.024100
     32 HN3         5.9470    0.1384   16.9440 hn         1 S82      0.327700
     33 H14        13.8391   -2.6067   23.7763 hx         1 S82      0.106033
     34 H15        14.0110   -1.5397   22.3457 hx         1 S82      0.106033
     35 H16        14.3657   -0.9195   23.9882 hx         1 S82      0.106033
     36 HN7         8.1827   -1.6632   20.9668 hn         1 S82      0.352500
@<TRIPOS>BOND
    1    18    19 1
    2    17    18 1
    3    16    17 1
    4    15    19 1
    5    13    14 1
    6    13    19 1
    7    12    13 1
    8    11    12 1
    9     9    15 1
   10     9    16 1
   11     8    10 1
   12     7    14 1
   13     7    15 1
   14     5    11 1
   15     5     6 1
   16     5     8 1
   17     4     6 1
   18     3    11 1
   19     2     4 1
   20     2    10 1
   21     1     2 1
   22    18    31 1
   23    16    30 1
   24    14    29 1
   25    12    36 1
   26    10    27 1
   27    10    28 1
   28     8    25 1
   29     8    26 1
   30     7    32 1
   31     6    23 1
   32     6    24 1
   33     4    21 1
   34     4    22 1
   35     2    20 1
   36     1    33 1
   37     1    34 1
   38     1    35 1
@<TRIPOS>SUBSTRUCTURE
      1 S82               1 ****               0 ****  **** 
