@<TRIPOS>MOLECULE
Cpptraj Generated mol2 file.
   36    38     1     0     0
SMALL
USER_CHARGES


@<TRIPOS>ATOM
      1 C1         13.6264   -1.5612   23.3755 c3         1 S88      0.085100
      2 N1         12.1703   -1.1585   23.5379 nx         1 S88     -0.674400
      3 O1          8.8047    1.4036   21.1188 o          1 S88     -0.624100
      4 C2         11.2835   -2.0551   22.6693 c3         1 S88      0.064300
      5 N2          9.6784   -0.2419   22.4760 n          1 S88     -0.403800
      6 C3          9.8150   -1.6463   22.8852 c3         1 S88      0.028500
      7 N3          6.0770   -0.0591   17.8382 na         1 S88     -0.256100
      8 C4         10.4920    0.6919   23.2627 c3         1 S88      0.028500
      9 N4          4.2147    1.4315   18.5395 nb         1 S88     -0.609000
     10 C5         11.9837    0.3066   23.1390 c3         1 S88      0.064300
     11 C6          8.8205    0.2113   21.4740 c          1 S88      0.724100
     12 N7          8.0009   -0.7345   20.8497 ns         1 S88     -0.382100
     13 C8          7.0969   -0.3052   19.8830 cc         1 S88     -0.159200
     14 C9          7.1317   -0.6462   18.5348 cd         1 S88      0.084300
     15 C10         5.3585    0.6982   18.7580 ca         1 S88      0.330500
     16 C11         3.7110    1.9725   19.6516 ca         1 S88      0.312900
     17 C12         4.3012    1.8160   20.9577 ca         1 S88      0.279900
     18 N6          5.4212    1.1244   21.1669 nb         1 S88     -0.610000
     19 C14         5.9639    0.5540   20.0520 ca         1 S88      0.293800
     20 HN1        11.8791   -1.2878   24.5517 hn         1 S88      0.440800
     21 H22        11.4460   -3.1327   22.9330 hx         1 S88      0.120200
     22 H23        11.5748   -1.9786   21.5903 hx         1 S88      0.120200
     23 H32         9.1657   -2.3496   22.3085 h1         1 S88      0.101700
     24 H33         9.4830   -1.7749   23.9485 h1         1 S88      0.101700
     25 H42        10.3759    1.7544   22.9379 h1         1 S88      0.101700
     26 H43        10.1496    0.6880   24.3298 h1         1 S88      0.101700
     27 H52        12.6142    0.9792   23.7779 hx         1 S88      0.120200
     28 H53        12.3623    0.4664   22.1018 hx         1 S88      0.120200
     29 Cl1         8.1831   -1.6944   17.8137 cl         1 S88      0.000600
     30 H11         2.7879    2.5661   19.5247 h4         1 S88      0.050100
     31 HN3         5.9559   -0.1035   16.8242 hn         1 S88      0.335700
     32 H14        13.8002   -2.5974   23.7435 hx         1 S88      0.105367
     33 H15        13.9475   -1.5232   22.3161 hx         1 S88      0.105367
     34 H16        14.2984   -0.8987   23.9588 hx         1 S88      0.105367
     35 H12         3.8190    2.2670   21.8496 h4         1 S88      0.043100
     36 HN7         8.0629   -1.7432   21.0114 hn         1 S88      0.347500
@<TRIPOS>BOND
    1    18    19 1
    2    17    18 1
    3    16    17 1
    4    15    19 1
    5    14    29 1
    6    13    14 1
    7    13    19 1
    8    12    13 1
    9    11    12 1
   10     9    15 1
   11     9    16 1
   12     8    10 1
   13     7    14 1
   14     7    15 1
   15     5    11 1
   16     5     6 1
   17     5     8 1
   18     4     6 1
   19     3    11 1
   20     2     4 1
   21     2    10 1
   22     1     2 1
   23    17    35 1
   24    16    30 1
   25    12    36 1
   26    10    27 1
   27    10    28 1
   28     8    25 1
   29     8    26 1
   30     7    31 1
   31     6    23 1
   32     6    24 1
   33     4    21 1
   34     4    22 1
   35     2    20 1
   36     1    32 1
   37     1    33 1
   38     1    34 1
@<TRIPOS>SUBSTRUCTURE
      1 S88               1 ****               0 ****  **** 
