@<TRIPOS>MOLECULE
Cpptraj Generated mol2 file.
   36    38     1     0     0
SMALL
USER_CHARGES


@<TRIPOS>ATOM
      1 C1         13.6615   -1.4629   23.5033 c3         1 S86      0.085100
      2 N1         12.2057   -1.0395   23.6385 nx         1 S86     -0.674400
      3 O1          8.9229    1.4329   21.0813 o          1 S86     -0.628100
      4 C2         11.3131   -1.9808   22.8207 c3         1 S86      0.064800
      5 N2          9.7195   -0.1626   22.5497 n          1 S86     -0.399800
      6 C3          9.8451   -1.5490   23.0108 c3         1 S86      0.028000
      7 N3          6.2174    0.1185   17.8452 na         1 S86     -0.283100
      8 C4         10.5381    0.7972   23.2921 c3         1 S86      0.028000
      9 N4          4.2515    1.4339   18.6040 nb         1 S86     -0.609000
     10 C5         12.0262    0.4022   23.1626 c3         1 S86      0.064800
     11 C6          8.9021    0.2593   21.4993 c          1 S86      0.716100
     12 N7          8.0692   -0.6926   20.9006 ns         1 S86     -0.372100
     13 C8          7.1625   -0.2667   19.9275 cc         1 S86     -0.186200
     14 C9          7.2903   -0.4495   18.5454 cd         1 S86      0.223400
     15 C10         5.4145    0.7338   18.8034 ca         1 S86      0.334500
     16 C11         3.6880    1.8797   19.7292 ca         1 S86      0.311900
     17 C12         4.2273    1.6403   21.0387 ca         1 S86      0.282900
     18 N6          5.3606    0.9597   21.2384 nb         1 S86     -0.605000
     19 C14         5.9713    0.5097   20.1069 ca         1 S86      0.299800
     20 HN1        11.9080   -1.1204   24.6519 hn         1 S86      0.441800
     21 H22        11.4631   -3.0425   23.1457 hx         1 S86      0.120450
     22 H23        11.6062   -1.9628   21.7386 hx         1 S86      0.120450
     23 H32         9.1891   -2.2652   22.4537 h1         1 S86      0.101700
     24 H33         9.5059   -1.6315   24.0732 h1         1 S86      0.101700
     25 H42        10.4259    1.8496   22.9310 h1         1 S86      0.101700
     26 H43        10.2069    0.8354   24.3560 h1         1 S86      0.101700
     27 H52        12.6756    1.1008   23.7461 hx         1 S86      0.120450
     28 H53        12.3871    0.4954   22.1087 hx         1 S86      0.120450
     29 F1          8.2129   -1.1158   17.8905 f          1 S86     -0.113500
     30 H11         2.7505    2.4584   19.6043 h4         1 S86      0.051100
     31 HN3         6.1215    0.1626   16.8353 hn         1 S86      0.336700
     32 H14        13.8292   -2.4832   23.9082 hx         1 S86      0.105367
     33 H15        13.9875   -1.4598   22.4475 hx         1 S86      0.105367
     34 H16        14.3275   -0.7825   24.0651 hx         1 S86      0.105367
     35 H12         3.7059    2.0155   21.9420 h4         1 S86      0.046100
     36 HN7         8.0418   -1.6808   21.1601 hn         1 S86      0.352500
@<TRIPOS>BOND
    1    18    19 1
    2    17    18 1
    3    16    17 1
    4    15    19 1
    5    14    29 1
    6    13    14 1
    7    13    19 1
    8    12    13 1
    9    11    12 1
   10     9    15 1
   11     9    16 1
   12     8    10 1
   13     7    14 1
   14     7    15 1
   15     5    11 1
   16     5     6 1
   17     5     8 1
   18     4     6 1
   19     3    11 1
   20     2     4 1
   21     2    10 1
   22     1     2 1
   23    17    35 1
   24    16    30 1
   25    12    36 1
   26    10    27 1
   27    10    28 1
   28     8    25 1
   29     8    26 1
   30     7    31 1
   31     6    23 1
   32     6    24 1
   33     4    21 1
   34     4    22 1
   35     2    20 1
   36     1    32 1
   37     1    33 1
   38     1    34 1
@<TRIPOS>SUBSTRUCTURE
      1 S86               1 ****               0 ****  **** 
