@<TRIPOS>MOLECULE
Cpptraj Generated mol2 file.
   36    38     1     0     0
SMALL
USER_CHARGES


@<TRIPOS>ATOM
      1 C1         13.6584   -1.4641   23.5011 c3         1 S86      0.085100
      2 N1         12.2052   -1.0466   23.6353 nx         1 S86     -0.674400
      3 O1          8.9191    1.4286   21.0864 o          1 S86     -0.628100
      4 C2         11.3121   -1.9820   22.8174 c3         1 S86      0.064800
      5 N2          9.7149   -0.1591   22.5469 n          1 S86     -0.399800
      6 C3          9.8427   -1.5470   23.0053 c3         1 S86      0.028000
      7 N3          6.2112    0.1167   17.8513 na         1 S86     -0.283100
      8 C4         10.5423    0.7972   23.2901 c3         1 S86      0.028000
      9 N4          4.2519    1.4320   18.5989 nb         1 S86     -0.609000
     10 C5         12.0285    0.3990   23.1619 c3         1 S86      0.064800
     11 C6          8.8989    0.2553   21.4960 c          1 S86      0.716100
     12 N7          8.0580   -0.6924   20.8935 ns         1 S86     -0.372100
     13 C8          7.1687   -0.2669   19.9202 cc         1 S86     -0.186200
     14 C9          7.2874   -0.4536   18.5508 cd         1 S86      0.223400
     15 C10         5.4095    0.7384   18.8111 ca         1 S86      0.334500
     16 C11         3.6809    1.8789   19.7273 ca         1 S86      0.311900
     17 C12         4.2281    1.6444   21.0407 ca         1 S86      0.282900
     18 N6          5.3637    0.9625   21.2464 nb         1 S86     -0.605000
     19 C14         5.9654    0.5068   20.1071 ca         1 S86      0.299800
     20 HN1        11.9096   -1.1218   24.6524 hn         1 S86      0.441800
     21 H22        11.4644   -3.0432   23.1400 hx         1 S86      0.120450
     22 H23        11.6055   -1.9622   21.7359 hx         1 S86      0.120450
     23 H32         9.1896   -2.2679   22.4528 h1         1 S86      0.101700
     24 H33         9.5043   -1.6344   24.0714 h1         1 S86      0.101700
     25 H42        10.4242    1.8513   22.9297 h1         1 S86      0.101700
     26 H43        10.2043    0.8322   24.3589 h1         1 S86      0.101700
     27 H52        12.6761    1.1005   23.7462 hx         1 S86      0.120450
     28 H53        12.3858    0.4952   22.1069 hx         1 S86      0.120450
     29 F1          8.2078   -1.1164   17.8924 f          1 S86     -0.113500
     30 H11         2.7518    2.4588   19.6060 h4         1 S86      0.051100
     31 HN3         6.1181    0.1586   16.8368 hn         1 S86      0.336700
     32 H14        13.8271   -2.4859   23.9023 hx         1 S86      0.105367
     33 H15        13.9853   -1.4629   22.4419 hx         1 S86      0.105367
     34 H16        14.3301   -0.7856   24.0624 hx         1 S86      0.105367
     35 H12         3.7085    2.0153   21.9410 h4         1 S86      0.046100
     36 HN7         8.0393   -1.6753   21.1623 hn         1 S86      0.352500
@<TRIPOS>BOND
    1    18    19 1
    2    17    18 1
    3    16    17 1
    4    15    19 1
    5    14    29 1
    6    13    14 1
    7    13    19 1
    8    12    13 1
    9    11    12 1
   10     9    15 1
   11     9    16 1
   12     8    10 1
   13     7    14 1
   14     7    15 1
   15     5    11 1
   16     5     6 1
   17     5     8 1
   18     4     6 1
   19     3    11 1
   20     2     4 1
   21     2    10 1
   22     1     2 1
   23    17    35 1
   24    16    30 1
   25    12    36 1
   26    10    27 1
   27    10    28 1
   28     8    25 1
   29     8    26 1
   30     7    31 1
   31     6    23 1
   32     6    24 1
   33     4    21 1
   34     4    22 1
   35     2    20 1
   36     1    32 1
   37     1    33 1
   38     1    34 1
@<TRIPOS>SUBSTRUCTURE
      1 S86               1 ****               0 ****  **** 
