@<TRIPOS>MOLECULE
Cpptraj Generated mol2 file.
   43    44     1     0     0
SMALL
USER_CHARGES


@<TRIPOS>ATOM
      1 O1          8.6635    1.0796   20.8075 o          1 T14     -0.596100
      2 C1          8.1675    0.1318   21.4306 c          1 T14      0.784100
      3 N1          8.8697   -0.6192   22.3741 ns         1 T14     -0.445100
      4 C2         10.2285   -0.2720   22.5896 ca         1 T14     -0.158700
      5 C3         10.5436    0.9449   23.2824 ca         1 T14      0.704200
      6 N8         11.8530    1.3813   23.3929 nb         1 T14     -0.730000
      7 C5         12.8106    0.5898   22.8758 ca         1 T14      0.490200
      8 C6         12.5527   -0.6307   22.2373 ca         1 T14     -0.193300
      9 C7         11.2331   -1.0695   22.0852 ca         1 T14     -0.037000
     10 N2          6.8014   -0.1924   21.2620 n          1 T14     -0.447600
     11 C8          6.1304    0.3517   20.1317 ca         1 T14     -0.059700
     12 C9          4.9791    1.1126   20.2926 ca         1 T14     -0.120000
     13 C10         4.3681    1.6613   19.1496 ca         1 T14      0.017300
     14 C11         4.9406    1.3955   17.8806 ca         1 T14      0.374200
     15 N3          6.0604    0.6773   17.7040 nb         1 T14     -0.653000
     16 C12         6.6450    0.1810   18.8285 ca         1 T14      0.586500
     17 H1          8.5807   -1.5569   22.6707 hn         1 T14      0.325500
     18 N9          9.5480    1.6638   23.8749 nu         1 T14     -0.827900
     19 H5         13.8328    0.9816   22.9872 h4         1 T14      0.037100
     20 C16        13.5362   -1.4207   21.6049 cg         1 T14      0.243800
     21 H7         11.0138   -2.0153   21.5645 ha         1 T14      0.153000
     22 C19         6.1162   -1.1453   22.1310 c          1 T14      0.672300
     23 H9          4.5653    1.2981   21.2932 ha         1 T14      0.164000
     24 N4          3.1953    2.3860   19.2530 nv         1 T14     -0.808200
     25 H11         4.5149    1.8073   16.9574 h4         1 T14      0.033100
     26 F1          7.7786   -0.4710   18.6163 f          1 T14     -0.217200
     27 H41         2.9752    2.8084   20.1451 hn         1 T14      0.397300
     28 H42         2.9034    2.9186   18.4476 hn         1 T14      0.397300
     29 N7         14.2519   -2.0778   20.9811 n1         1 T14     -0.363800
     30 C17         9.6588    3.0988   24.1801 c3         1 T14      0.197800
     31 H91         8.6227    1.2447   23.9474 hn         1 T14      0.437800
     32 C18         8.4231    3.5350   24.9744 c3         1 T14     -0.110100
     33 H172       10.6000    3.3175   24.7306 h1         1 T14      0.056200
     34 H171        9.7353    3.6803   23.2301 h1         1 T14      0.056200
     35 H181        8.4046    4.6271   25.0912 hc         1 T14      0.045700
     36 H182        8.3919    3.0913   25.9791 hc         1 T14      0.045700
     37 H183        7.4776    3.2672   24.4791 hc         1 T14      0.045700
     38 C20         6.2945   -0.9440   23.5693 ce         1 T14     -0.247200
     39 O2          5.4611   -2.0250   21.5909 o          1 T14     -0.539100
     40 H201        6.6421    0.0419   23.8982 ha         1 T14      0.152000
     41 C21         5.9606   -1.9005   24.4375 c2         1 T14     -0.126000
     42 H211        5.5810   -2.8820   24.1547 ha         1 T14      0.134000
     43 H212        6.0584   -1.7601   25.5141 ha         1 T14      0.134000
@<TRIPOS>BOND
    1     2     1 1
    2     3     2 1
    3     4     3 1
    4     5     4 1
    5     6     5 1
    6     7     6 1
    7     8     7 1
    8     9     4 1
    9     9     8 1
   10    10     2 1
   11    11    10 1
   12    12    11 1
   13    13    12 1
   14    14    13 1
   15    15    14 1
   16    16    11 1
   17    16    15 1
   18    18     5 1
   19    20     8 1
   20    22    10 1
   21    24    13 1
   22    26    16 1
   23    29    20 1
   24    30    18 1
   25    32    30 1
   26    38    22 1
   27    39    22 1
   28    41    38 1
   29    17     3 1
   30    19     7 1
   31    21     9 1
   32    23    12 1
   33    25    14 1
   34    27    24 1
   35    28    24 1
   36    31    18 1
   37    33    30 1
   38    34    30 1
   39    35    32 1
   40    36    32 1
   41    37    32 1
   42    40    38 1
   43    42    41 1
   44    43    41 1
@<TRIPOS>SUBSTRUCTURE
      1 T14               1 ****               0 ****  **** 
