@<TRIPOS>MOLECULE
Cpptraj Generated mol2 file.
   46    47     1     0     0
SMALL
USER_CHARGES


@<TRIPOS>ATOM
      1 O1          8.6453    0.9516   20.7123 o          1 T16     -0.603100
      2 C1          8.1145    0.1146   21.4422 c          1 T16      0.637100
      3 N1          8.7877   -0.4800   22.4921 ns         1 T16     -0.452100
      4 C2         10.1512   -0.1667   22.7080 ca         1 T16     -0.142700
      5 C3         10.5106    1.0619   23.3616 ca         1 T16      0.692200
      6 N8         11.8328    1.4737   23.4278 nb         1 T16     -0.731000
      7 C5         12.7640    0.6484   22.9173 ca         1 T16      0.481200
      8 C6         12.4689   -0.5802   22.3086 ca         1 T16     -0.194300
      9 C7         11.1353   -0.9863   22.1878 ca         1 T16     -0.045000
     10 C2L         6.6306   -0.2849   21.3166 c3         1 T16      0.099000
     11 C8          6.0529    0.3297   20.0720 ca         1 T16     -0.189600
     12 C9          4.9619    1.1811   20.1694 ca         1 T16     -0.142000
     13 C10         4.4292    1.7243   18.9876 ca         1 T16      0.024300
     14 C11         5.0458    1.3843   17.7598 ca         1 T16      0.352200
     15 N3          6.1118    0.5694   17.6732 nb         1 T16     -0.634000
     16 C12         6.6072    0.0520   18.8178 ca         1 T16      0.383200
     17 H1          8.3721   -1.2133   23.0637 hn         1 T16      0.345500
     18 N9          9.5592    1.8437   23.9376 nu         1 T16     -0.827900
     19 H5         13.7949    1.0236   23.0105 h4         1 T16      0.033100
     20 C16        13.4420   -1.3805   21.6787 cg         1 T16      0.248800
     21 H7         10.8918   -1.9266   21.6709 ha         1 T16      0.155000
     22 H9          4.5202    1.4348   21.1435 ha         1 T16      0.142000
     23 N4          3.2749    2.4870   19.0254 nv         1 T16     -0.813200
     24 H11         4.6974    1.8129   16.8171 h4         1 T16      0.025100
     25 H12         7.4959   -0.5801   18.6896 h4         1 T16      0.042100
     26 H41         3.0913    3.0215   19.8633 hn         1 T16      0.396800
     27 H42         3.0004    2.9564   18.1758 hn         1 T16      0.396800
     28 N7         14.1734   -2.0379   21.0576 n1         1 T16     -0.374800
     29 C17         9.7747    3.2687   24.2611 c3         1 T16      0.197800
     30 H91         8.6066    1.4882   24.0020 hn         1 T16      0.437800
     31 C18         8.5548    3.7968   25.0179 c3         1 T16     -0.110100
     32 H172       10.7102    3.4140   24.8461 h1         1 T16      0.053700
     33 H171        9.9335    3.8332   23.3168 h1         1 T16      0.053700
     34 H181        8.6207    4.8875   25.1481 hc         1 T16      0.044367
     35 H182        8.4527    3.3531   26.0210 hc         1 T16      0.044367
     36 H183        7.6046    3.6106   24.4895 hc         1 T16      0.044367
     37 N10         6.5206   -1.7444   21.2634 ns         1 T16     -0.567900
     38 H2L1        6.1123    0.1425   22.2321 h1         1 T16      0.092700
     39 C19         5.7271   -2.4577   22.1540 c          1 T16      0.665300
     40 H101        6.9838   -2.2166   20.4864 hn         1 T16      0.329500
     41 C20         5.7517   -3.9354   22.0761 ce         1 T16     -0.215200
     42 O2          5.0275   -1.8717   22.9835 o          1 T16     -0.627100
     43 C21         6.8686   -4.6254   21.8791 c2         1 T16     -0.161000
     44 H201        4.8048   -4.4281   22.3286 ha         1 T16      0.162000
     45 H211        7.8445   -4.1692   21.7374 ha         1 T16      0.126000
     46 H212        6.8918   -5.7146   21.8712 ha         1 T16      0.126000
@<TRIPOS>BOND
    1     2     1 1
    2     3     2 1
    3     4     3 1
    4     5     4 1
    5     6     5 1
    6     7     6 1
    7     8     7 1
    8     9     4 1
    9     9     8 1
   10    10     2 1
   11    11    10 1
   12    12    11 1
   13    13    12 1
   14    14    13 1
   15    15    14 1
   16    16    11 1
   17    16    15 1
   18    18     5 1
   19    20     8 1
   20    23    13 1
   21    28    20 1
   22    29    18 1
   23    31    29 1
   24    37    10 1
   25    39    37 1
   26    41    39 1
   27    42    39 1
   28    43    41 1
   29    17     3 1
   30    19     7 1
   31    21     9 1
   32    22    12 1
   33    24    14 1
   34    25    16 1
   35    26    23 1
   36    27    23 1
   37    30    18 1
   38    32    29 1
   39    33    29 1
   40    34    31 1
   41    35    31 1
   42    36    31 1
   43    38    10 1
   44    40    37 1
   45    44    41 1
   46    45    43 1
   47    46    43 1
@<TRIPOS>SUBSTRUCTURE
      1 T16               1 ****               0 ****  **** 
