@<TRIPOS>MOLECULE
default_name
   43    44     1     0     1 
SMALL
USER_CHARGES
@<TRIPOS>ATOM
  1 O1      8.713000    1.132000   20.727000 o     1 T14    -0.5961 ****
  2 C1      8.173000    0.247000   21.411000 c     1 T14     0.7841 ****
  3 N1      8.869000   -0.472000   22.376000 ns    1 T14    -0.4451 ****
  4 C2     10.221000   -0.089000   22.636000 ca    1 T14    -0.1587 ****
  5 C3     10.461000    0.927000   23.562000 ca    1 T14     0.7042 ****
  6 N8     11.768000    1.327000   23.805000 nb    1 T14    -0.7300 ****
  7 C5     12.819000    0.720000   23.129000 ca    1 T14     0.4902 ****
  8 C6     12.569000   -0.296000   22.216000 ca    1 T14    -0.1933 ****
  9 C7     11.269000   -0.716000   21.960000 ca    1 T14    -0.0370 ****
 10 N2      6.807000   -0.063000   21.240000 n     1 T14    -0.4476 ****
 11 C8      6.157000    0.487000   20.114000 ca    1 T14    -0.0597 ****
 12 C9      5.003000    1.255000   20.243000 ca    1 T14    -0.1200 ****
 13 C10     4.388000    1.751000   19.079000 ca    1 T14     0.0173 ****
 14 C11     4.961000    1.434000   17.822000 ca    1 T14     0.3742 ****
 15 N3      6.076000    0.701000   17.672000 nb    1 T14    -0.6530 ****
 16 C12     6.659000    0.247000   18.814000 ca    1 T14     0.5865 ****
 17 H1      8.510000   -1.328000   22.797000 hn    1 T14     0.3255 ****
 18 N9      9.454000    1.515000   24.206000 nu    1 T14    -0.8279 ****
 19 H5     13.843000    1.064000   23.294000 h4    1 T14     0.0371 ****
 20 C16    13.632000   -0.894000   21.522000 cg    1 T14     0.2438 ****
 21 H7     11.075000   -1.510000   21.230000 ha    1 T14     0.1530 ****
 22 C19     6.042000   -0.516000   22.232000 c     1 T14     0.6723 ****
 23 H9      4.595000    1.485000   21.236000 ha    1 T14     0.1640 ****
 24 N4      3.204000    2.456000   19.158000 nv    1 T14    -0.8082 ****
 25 H11     4.544000    1.821000   16.885000 h4    1 T14     0.0331 ****
 26 F1      7.775000   -0.442000   18.623000 f     1 T14    -0.2172 ****
 27 H41     2.993000    2.930000   20.028000 hn    1 T14     0.3973 ****
 28 H42     2.904000    2.953000   18.330000 hn    1 T14     0.3973 ****
 29 N7     14.597000   -1.437000   20.892000 n1    1 T14    -0.3638 ****
 30 C17     9.183000    2.921000   23.994000 c3    1 T14     0.1978 ****
 31 H91     8.879000    0.980000   24.841000 hn    1 T14     0.4378 ****
 32 C18     7.988000    3.342000   24.843000 c3    1 T14    -0.1101 ****
 33 H172   10.056000    3.506000   24.282000 h1    1 T14     0.0562 ****
 34 H171    8.960000    3.094000   22.942000 h1    1 T14     0.0562 ****
 35 H181    7.784000    4.401000   24.683000 hc    1 T14     0.0457 ****
 36 H182    8.211000    3.169000   25.895000 hc    1 T14     0.0457 ****
 37 H183    7.115000    2.757000   24.556000 hc    1 T14     0.0457 ****
 38 C20     6.617000   -0.892000   23.455000 ce    1 T14    -0.2472 ****
 39 O2      4.817000   -0.606000   22.073000 o     1 T14    -0.5391 ****
 40 H201    7.685000   -0.814000   23.596000 ha    1 T14     0.1520 ****
 41 C21     5.805000   -1.368000   24.494000 c2    1 T14    -0.1260 ****
 42 H211    4.737000   -1.445000   24.353000 ha    1 T14     0.1340 ****
 43 H212    6.248000   -1.657000   25.436000 ha    1 T14     0.1340 ****
@<TRIPOS>BOND
    1    41    42 1
    2    41    43 1
    3    38    40 1
    4    38    41 1
    5    32    35 1
    6    32    36 1
    7    32    37 1
    8    30    32 1
    9    30    33 1
   10    30    34 1
   11    24    27 1
   12    24    28 1
   13    22    38 1
   14    22    39 1
   15    20    29 1
   16    18    30 1
   17    18    31 1
   18    16    26 1
   19    15    16 1
   20    14    15 1
   21    14    25 1
   22    13    14 1
   23    13    24 1
   24    12    13 1
   25    12    23 1
   26    11    12 1
   27    11    16 1
   28    10    11 1
   29    10    22 1
   30     9    21 1
   31     8     9 1
   32     8    20 1
   33     7     8 1
   34     7    19 1
   35     6     7 1
   36     5     6 1
   37     5    18 1
   38     4     5 1
   39     4     9 1
   40     3     4 1
   41     3    17 1
   42     2     3 1
   43     2    10 1
   44     1     2 1
@<TRIPOS>SUBSTRUCTURE
      1  T14              1 ****               0 ****  **** 
