@<TRIPOS>MOLECULE
Cpptraj Generated mol2 file.
   48    50     1     0     0
SMALL
USER_CHARGES


@<TRIPOS>ATOM
      1 O1          9.0998    1.4439   21.0519 o          1 T19     -0.624100
      2 N1          9.4528    0.1123   22.8718 ns         1 T19     -0.455100
      3 N3          6.1143    0.6486   18.0810 na         1 T19     -0.284100
      4 N4          4.0158    1.8423   18.6140 nb         1 T19     -0.663000
      5 C1          8.7499    0.4739   21.7194 c          1 T19      0.648100
      6 C2L         7.5426   -0.4066   21.3463 c3         1 T19      0.130900
      7 C8          6.8102    0.1726   20.1927 cc         1 T19     -0.194400
      8 C9          7.1180    0.0559   18.8487 cd         1 T19     -0.036100
      9 C10         5.1643    1.1757   18.9567 ca         1 T19      0.414800
     10 C11         3.2902    2.2416   19.6695 ca         1 T19      0.409200
     11 C12         3.6239    2.0134   21.0279 ca         1 T19     -0.264300
     12 C13         4.7800    1.3350   21.3478 ca         1 T19     -0.056000
     13 C14         5.5832    0.8981   20.2920 ca         1 T19     -0.178100
     14 N10         8.0746   -1.7200   20.9794 ns         1 T19     -0.564900
     15 H2L1        6.8407   -0.4698   22.2303 h1         1 T19      0.094700
     16 H9          7.9660   -0.4121   18.3503 h4         1 T19      0.200000
     17 H11         2.3717    2.7889   19.4050 h4         1 T19      0.024100
     18 H12         2.9513    2.3880   21.8111 ha         1 T19      0.145000
     19 H13         5.0621    1.1396   22.3926 ha         1 T19      0.143000
     20 HN3         6.0749    0.6350   17.0658 hn         1 T19      0.314700
     21 H1          9.0618   -0.5973   23.4987 hn         1 T19      0.349500
     22 C2         10.8722    0.1440   22.7982 ca         1 T19     -0.139700
     23 C3         11.6239    1.3415   23.0123 ca         1 T19      0.693200
     24 N9         11.0517    2.5628   23.2219 nu         1 T19     -0.828900
     25 N8         13.0147    1.3094   22.9948 nb         1 T19     -0.733000
     26 C5         13.6069    0.1821   22.5986 ca         1 T19      0.482200
     27 C6         12.9131   -0.9812   22.2392 ca         1 T19     -0.197300
     28 H5         14.6955    0.2436   22.5329 h4         1 T19      0.033100
     29 C16        13.5779   -2.0457   21.6002 cg         1 T19      0.249800
     30 C7         11.5301   -1.0174   22.4126 ca         1 T19     -0.043000
     31 H7         10.9801   -1.9466   22.2060 ha         1 T19      0.153000
     32 N7         14.1040   -2.8905   21.0094 n1         1 T19     -0.376800
     33 H91        10.0397    2.6232   23.2745 hn         1 T19      0.438800
     34 C17        11.8153    3.7935   22.9126 c3         1 T19      0.198800
     35 H171       12.8423    3.7540   23.3506 h1         1 T19      0.053200
     36 H172       11.9791    3.8532   21.8073 h1         1 T19      0.053200
     37 C18        11.0779    5.0321   23.4106 c3         1 T19     -0.109100
     38 H181       11.5073    5.9347   22.9504 hc         1 T19      0.044033
     39 H182       10.0101    5.0383   23.1516 hc         1 T19      0.044033
     40 H183       11.1566    5.1525   24.4993 hc         1 T19      0.044033
     41 H101        8.6568   -1.7845   20.1415 hn         1 T19      0.325500
     42 C19         7.7407   -2.8737   21.6831 c          1 T19      0.663300
     43 C20         8.0279   -4.1450   20.9907 ce         1 T19     -0.241200
     44 O2          7.2337   -2.8045   22.8051 o          1 T19     -0.641100
     45 H201        8.9039   -4.1683   20.3271 ha         1 T19      0.136000
     46 C21         7.2784   -5.2189   21.2189 c2         1 T19     -0.120000
     47 H211        7.4762   -6.1705   20.7340 ha         1 T19      0.133000
     48 H212        6.4338   -5.2497   21.9048 ha         1 T19      0.133000
@<TRIPOS>BOND
    1     5     1 1
    2     5     2 1
    3     6     5 1
    4     7     6 1
    5     8     3 1
    6     8     7 1
    7     9     3 1
    8     9     4 1
    9    10     4 1
   10    11    10 1
   11    12    11 1
   12    13     7 1
   13    13     9 1
   14    13    12 1
   15    14     6 1
   16    22     2 1
   17    23    22 1
   18    24    23 1
   19    25    23 1
   20    26    25 1
   21    27    26 1
   22    29    27 1
   23    30    22 1
   24    30    27 1
   25    32    29 1
   26    34    24 1
   27    37    34 1
   28    42    14 1
   29    43    42 1
   30    44    42 1
   31    46    43 1
   32    15     6 1
   33    16     8 1
   34    17    10 1
   35    18    11 1
   36    19    12 1
   37    20     3 1
   38    21     2 1
   39    28    26 1
   40    31    30 1
   41    33    24 1
   42    35    34 1
   43    36    34 1
   44    38    37 1
   45    39    37 1
   46    40    37 1
   47    41    14 1
   48    45    43 1
   49    47    46 1
   50    48    46 1
@<TRIPOS>SUBSTRUCTURE
      1 T19               1 ****               0 ****  **** 
