@<TRIPOS>MOLECULE
Cpptraj Generated mol2 file.
   27    28     1     0     0
SMALL
USER_CHARGES


@<TRIPOS>ATOM
      1 O1          8.6034    1.2927   20.8062 o          1 S78     -0.589100
      2 C1          8.0916    0.3542   21.4347 c          1 S78      0.755100
      3 N1          8.8140   -0.3995   22.3543 ns         1 S78     -0.452100
      4 C2         10.1584   -0.0087   22.6263 ca         1 S78      0.054600
      5 C3         10.3939    1.2235   23.2358 ca         1 S78     -0.155500
      6 C4         11.7025    1.6165   23.4867 ca         1 S78     -0.108500
      7 C5         12.7595    0.7900   23.1281 ca         1 S78     -0.149000
      8 C6         12.5120   -0.4387   22.5280 ca         1 S78     -0.108500
      9 C7         11.2120   -0.8558   22.2787 ca         1 S78     -0.155500
     10 N2          6.7283    0.0113   21.2710 ns         1 S78     -0.462100
     11 C8          6.0703    0.5028   20.1295 ca         1 S78     -0.067700
     12 C9          4.8762    1.2363   20.2085 ca         1 S78     -0.108000
     13 C10         4.2917    1.6833   19.0357 ca         1 S78     -0.238300
     14 C11         4.9093    1.4051   17.8073 ca         1 S78      0.409200
     15 N3          6.0433    0.6844   17.6972 nb         1 S78     -0.651000
     16 C12         6.5844    0.2488   18.8535 ca         1 S78      0.514300
     17 H1          8.4833   -1.3004   22.7014 hn         1 S78      0.308500
     18 H3          9.5611    1.8807   23.5151 ha         1 S78      0.148000
     19 H4         11.8932    2.5865   23.9566 ha         1 S78      0.134000
     20 H5         13.7915    1.1202   23.2872 ha         1 S78      0.134000
     21 H6         13.3471   -1.0766   22.2232 ha         1 S78      0.134000
     22 H7         11.0236   -1.8241   21.7987 ha         1 S78      0.148000
     23 H2          6.1470   -0.3371   22.0402 hn         1 S78      0.306500
     24 H9          4.4193    1.4681   21.1803 ha         1 S78      0.143000
     25 H10         3.3720    2.2794   19.0587 ha         1 S78      0.150000
     26 H11         4.5059    1.7906   16.8650 h4         1 S78      0.032100
     27 Cl1         8.0251   -0.6600   18.6781 cl         1 S78     -0.127000
@<TRIPOS>BOND
    1    16    27 1
    2    15    16 1
    3    14    15 1
    4    13    14 1
    5    12    13 1
    6    11    12 1
    7    11    16 1
    8    10    11 1
    9     8     9 1
   10     7     8 1
   11     6     7 1
   12     5     6 1
   13     4     5 1
   14     4     9 1
   15     3     4 1
   16     2     3 1
   17     2    10 1
   18     1     2 1
   19    14    26 1
   20    13    25 1
   21    12    24 1
   22    10    23 1
   23     9    22 1
   24     8    21 1
   25     7    20 1
   26     6    19 1
   27     5    18 1
   28     3    17 1
@<TRIPOS>SUBSTRUCTURE
      1 S78               1 ****               0 ****  **** 
