@<TRIPOS>MOLECULE
Cpptraj Generated mol2 file.
   34    35     1     0     0
SMALL
USER_CHARGES


@<TRIPOS>ATOM
      1 O1          9.1153    1.3174   21.0035 o          1 S79     -0.588100
      2 C1          8.5475    0.6662   21.8820 c          1 S79      0.669100
      3 C2          9.1806    0.2745   23.1999 c3         1 S79     -0.152400
      4 C3         10.7060    0.2094   23.0723 c3         1 S79     -0.061700
      5 C4         11.1055   -0.8569   22.0508 c3         1 S79     -0.075900
      6 C5         12.2604   -1.7367   22.5140 c3         1 S79     -0.074900
      7 C6         13.3700   -0.9256   23.1664 c3         1 S79     -0.077400
      8 C7         12.8565   -0.0241   24.2884 c3         1 S79     -0.074900
      9 C8         11.3393   -0.0768   24.4332 c3         1 S79     -0.075900
     10 N1          7.2106    0.2989   21.7162 ns         1 S79     -0.467100
     11 C9          6.4978    0.5858   20.5384 ca         1 S79     -0.022700
     12 C10         5.2694    1.2662   20.5879 ca         1 S79     -0.121000
     13 C11         4.6058    1.5339   19.4052 ca         1 S79     -0.216300
     14 C12         5.1788    1.1336   18.1893 ca         1 S79      0.373200
     15 N2          6.3450    0.4610   18.1101 nb         1 S79     -0.630000
     16 C13         6.9616    0.1864   19.2783 ca         1 S79      0.434300
     17 H22         8.7886   -0.6984   23.5755 hc         1 S79      0.075200
     18 H23         8.8782    1.0243   23.9658 hc         1 S79      0.075200
     19 H3         11.0792    1.2072   22.7222 hc         1 S79      0.065700
     20 H42        10.2534   -1.5115   21.7713 hc         1 S79      0.040700
     21 H43        11.3612   -0.3530   21.1006 hc         1 S79      0.040700
     22 H52        12.6710   -2.2988   21.6491 hc         1 S79      0.042450
     23 H53        11.9007   -2.5255   23.2078 hc         1 S79      0.042450
     24 H62        14.1555   -1.6137   23.5521 hc         1 S79      0.042200
     25 H63        13.8949   -0.3224   22.3978 hc         1 S79      0.042200
     26 H72        13.3460   -0.3021   25.2441 hc         1 S79      0.042450
     27 H73        13.1768    1.0244   24.1072 hc         1 S79      0.042450
     28 H82        10.9951    0.6578   25.1893 hc         1 S79      0.040700
     29 H83        11.0063   -1.0560   24.8320 hc         1 S79      0.040700
     30 H1          6.6743   -0.1049   22.4864 hn         1 S79      0.331500
     31 H10         4.8422    1.5789   21.5503 ha         1 S79      0.185000
     32 H11         3.6572    2.0794   19.4087 ha         1 S79      0.151000
     33 H12         4.7098    1.3622   17.2259 h4         1 S79      0.030100
     34 Cl1         8.3924   -0.7358   19.1298 cl         1 S79     -0.168000
@<TRIPOS>BOND
    1    16    34 1
    2    15    16 1
    3    14    15 1
    4    13    14 1
    5    12    13 1
    6    11    12 1
    7    11    16 1
    8    10    11 1
    9     8     9 1
   10     7     8 1
   11     6     7 1
   12     5     6 1
   13     4     5 1
   14     4     9 1
   15     3     4 1
   16     2     3 1
   17     2    10 1
   18     1     2 1
   19    14    33 1
   20    13    32 1
   21    12    31 1
   22    10    30 1
   23     9    28 1
   24     9    29 1
   25     8    26 1
   26     8    27 1
   27     7    24 1
   28     7    25 1
   29     6    22 1
   30     6    23 1
   31     5    20 1
   32     5    21 1
   33     4    19 1
   34     3    17 1
   35     3    18 1
@<TRIPOS>SUBSTRUCTURE
      1 S79               1 ****               0 ****  **** 
