@<TRIPOS>MOLECULE
S31
   30    32     1     0     1 
SMALL
USER_CHARGES
@<TRIPOS>ATOM
  1 O1      0.976000    0.185000   -0.439000 o     1 S31    -0.6021 ****
  2 C1      2.161000    0.094000   -0.127000 c     1 S31     0.7691 ****
  3 N1      2.761000   -1.081000    0.293000 ns    1 S31    -0.4511 ****
  4 C2      2.131000   -2.299000    0.440000 cc    1 S31    -0.0237 ****
  5 C3      1.002000   -2.693000   -0.194000 cd    1 S31     0.3662 ****
  6 N2      0.332000   -3.894000   -0.005000 nd    1 S31    -0.6600 ****
  7 C4      0.832000   -4.703000    0.885000 cc    1 S31     0.5214 ****
  8 N3      1.996000   -4.370000    1.570000 na    1 S31     0.0452 ****
  9 C5      2.698000   -3.206000    1.375000 cc    1 S31    -0.0743 ****
 10 C6      3.772000   -3.265000    2.235000 cd    1 S31    -0.3386 ****
 11 C7      3.613000   -4.491000    2.916000 cd    1 S31     0.3765 ****
 12 N4      2.539000   -5.176000    2.509000 nc    1 S31    -0.5501 ****
 13 N5      3.060000    1.148000   -0.114000 ns    1 S31    -0.4571 ****
 14 C8      2.727000    2.506000   -0.317000 ca    1 S31     0.0546 ****
 15 C9      1.434000    3.009000   -0.151000 ca    1 S31    -0.1535 ****
 16 C10     1.155000    4.353000   -0.410000 ca    1 S31    -0.1085 ****
 17 C11     2.171000    5.208000   -0.827000 ca    1 S31    -0.1460 ****
 18 C12     3.472000    4.726000   -0.957000 ca    1 S31    -0.1085 ****
 19 C13     3.752000    3.382000   -0.690000 ca    1 S31    -0.1535 ****
 20 H1      3.628000   -0.961000    0.793000 hn    1 S31     0.3165 ****
 21 H2      0.526000   -2.047000   -0.929000 h4    1 S31     0.0721 ****
 22 H3      0.345000   -5.664000    1.113000 h5    1 S31     0.0741 ****
 23 H4      4.546000   -2.527000    2.383000 ha    1 S31     0.1640 ****
 24 H5      4.235000   -4.908000    3.698000 h4    1 S31     0.0568 ****
 25 H6      4.032000    0.903000   -0.219000 hn    1 S31     0.3085 ****
 26 H7      0.617000    2.376000    0.186000 ha    1 S31     0.1485 ****
 27 H8      0.140000    4.724000   -0.292000 ha    1 S31     0.1350 ****
 28 H9      1.948000    6.248000   -1.049000 ha    1 S31     0.1350 ****
 29 H10     4.266000    5.394000   -1.278000 ha    1 S31     0.1350 ****
 30 H11     4.773000    3.030000   -0.809000 ha    1 S31     0.1485 ****
@<TRIPOS>BOND
    1     1     2 1
    2     2     3 1
    3     2    13 1
    4     3     4 1
    5     3    20 1
    6     4     5 1
    7     4     9 1
    8     5     6 1
    9     5    21 1
   10     6     7 1
   11     7     8 1
   12     7    22 1
   13     8     9 1
   14     8    12 1
   15     9    10 1
   16    10    11 1
   17    10    23 1
   18    11    12 1
   19    11    24 1
   20    13    14 1
   21    13    25 1
   22    14    15 1
   23    14    19 1
   24    15    16 1
   25    15    26 1
   26    16    17 1
   27    16    27 1
   28    17    18 1
   29    17    28 1
   30    18    19 1
   31    18    29 1
   32    19    30 1
@<TRIPOS>SUBSTRUCTURE
      1  S31              1 ****               0 ****  **** 
