@<TRIPOS>MOLECULE
S39
   42    43     1     0     0
SMALL
bcc


@<TRIPOS>ATOM
      1 O1           0.8390     0.7130     0.3420 o          1 S39      -0.585100
      2 C1           1.9120     0.1390     0.2030 c          1 S39       0.667100
      3 N1           2.2690    -0.6330    -0.8990 ns         1 S39      -0.468100
      4 C2           1.4250    -1.0370    -1.9670 ca         1 S39      -0.023700
      5 C3           0.0560    -0.8220    -2.0120 ca         1 S39       0.347200
      6 N2          -0.7470    -1.2860    -2.9970 nb         1 S39      -0.626000
      7 C4          -0.1510    -1.9940    -3.9920 ca         1 S39       0.318200
      8 C5           1.2160    -2.2740    -4.0980 ca         1 S39       0.045300
      9 C6           1.9910    -1.7630    -3.0350 ca         1 S39      -0.188000
     10 N3           1.7710    -3.0730    -5.1050 nh         1 S39      -0.637000
     11 C7           0.8940    -3.7250    -6.0840 c3         1 S39       0.172100
     12 C8           3.0820    -2.7180    -5.6560 c3         1 S39       0.172100
     13 C9           3.0170     0.1760     1.2600 c3         1 S39      -0.149400
     14 C10          2.7910     1.1640     2.4290 c3         1 S39      -0.058700
     15 C11          1.6590     0.7750     3.3970 c3         1 S39      -0.077400
     16 C12          1.9890    -0.3920     4.3270 c3         1 S39      -0.077400
     17 C13          3.3410    -0.2620     5.0230 c3         1 S39      -0.077400
     18 C14          4.4650     0.1530     4.0800 c3         1 S39      -0.077400
     19 C15          4.0890     1.3690     3.2360 c3         1 S39      -0.077400
     20 H1           3.2350    -0.9300    -0.9590 hn         1 S39       0.316500
     21 H2          -0.4800    -0.2970    -1.2300 h4         1 S39       0.063100
     22 H3          -0.8640    -2.3400    -4.7340 h4         1 S39       0.023100
     23 H4           3.0550    -1.9720    -3.0070 ha         1 S39       0.138000
     24 H5          -0.0350    -4.1010    -5.6440 h1         1 S39       0.038700
     25 H6           1.4010    -4.6010    -6.5040 h1         1 S39       0.038700
     26 H7           0.6550    -3.0450    -6.9100 h1         1 S39       0.038700
     27 H8           3.7900    -2.3330    -4.9190 h1         1 S39       0.038700
     28 H9           2.9740    -1.9730    -6.4530 h1         1 S39       0.038700
     29 H10          3.5470    -3.6090    -6.0940 h1         1 S39       0.038700
     30 H11          3.9380     0.4670     0.7370 hc         1 S39       0.069200
     31 H12          3.1530    -0.8440     1.6340 hc         1 S39       0.069200
     32 H13          2.5230     2.1340     1.9880 hc         1 S39       0.069700
     33 H14          0.7380     0.5450     2.8520 hc         1 S39       0.045950
     34 H15          1.4290     1.6500     4.0190 hc         1 S39       0.045950
     35 H16          1.9600    -1.3290     3.7610 hc         1 S39       0.038200
     36 H17          1.2060    -0.4690     5.0920 hc         1 S39       0.038200
     37 H18          3.5960    -1.2170     5.4970 hc         1 S39       0.042200
     38 H19          3.2620     0.4740     5.8330 hc         1 S39       0.042200
     39 H20          4.7310    -0.6890     3.4300 hc         1 S39       0.038200
     40 H21          5.3600     0.3830     4.6710 hc         1 S39       0.038200
     41 H22          4.9190     1.6190     2.5650 hc         1 S39       0.045950
     42 H23          3.9590     2.2320     3.9020 hc         1 S39       0.045950
@<TRIPOS>BOND
     1     1     2 2   
     2     2     3 1   
     3     2    13 1   
     4     3     4 1   
     5     3    20 1   
     6     4     5 ar  
     7     4     9 ar  
     8     5     6 ar  
     9     5    21 1   
    10     6     7 ar  
    11     7     8 ar  
    12     7    22 1   
    13     8     9 ar  
    14     8    10 1   
    15     9    23 1   
    16    10    11 1   
    17    10    12 1   
    18    11    24 1   
    19    11    25 1   
    20    11    26 1   
    21    12    27 1   
    22    12    28 1   
    23    12    29 1   
    24    13    14 1   
    25    13    30 1   
    26    13    31 1   
    27    14    15 1   
    28    14    19 1   
    29    14    32 1   
    30    15    16 1   
    31    15    33 1   
    32    15    34 1   
    33    16    17 1   
    34    16    35 1   
    35    16    36 1   
    36    17    18 1   
    37    17    37 1   
    38    17    38 1   
    39    18    19 1   
    40    18    39 1   
    41    18    40 1   
    42    19    41 1   
    43    19    42 1   
@<TRIPOS>SUBSTRUCTURE
     1 S39         1 TEMP              0 ****  ****    0 ROOT
