@<TRIPOS>MOLECULE
S25
   29    30     1     0     0
SMALL
bcc


@<TRIPOS>ATOM
      1 O1           0.9530     0.1680    -0.1690 o          1 S25      -0.599100
      2 C1           2.1580     0.1210     0.0410 c          1 S25       0.769100
      3 N1           2.7640    -0.8680     0.7960 ns         1 S25      -0.459100
      4 C2           2.0620    -1.8590     1.5300 ca         1 S25      -0.013700
      5 C3           0.7000    -1.7950     1.8300 ca         1 S25       0.348200
      6 N2           0.0310    -2.7170     2.5630 nb         1 S25      -0.617000
      7 C4           0.7540    -3.7680     3.0030 ca         1 S25       0.316200
      8 C5           2.1020    -3.9770     2.7180 ca         1 S25       0.050300
      9 C6           2.7670    -2.9640     2.0190 ca         1 S25      -0.219000
     10 N3           2.8170    -5.0320     3.3040 nv         1 S25      -0.814200
     11 N4           3.0670     1.0420    -0.4560 ns         1 S25      -0.461100
     12 C7           2.7150     2.2240    -1.1530 ca         1 S25       0.056600
     13 C8           1.4400     2.7980    -1.0810 ca         1 S25      -0.155000
     14 C9           1.1340     3.9610    -1.7900 ca         1 S25      -0.108500
     15 C10          2.1040     4.5670    -2.5790 ca         1 S25      -0.148000
     16 C11          3.3820     4.0140    -2.6510 ca         1 S25      -0.108500
     17 C12          3.6910     2.8530    -1.9310 ca         1 S25      -0.155000
     18 H1           3.7650    -0.9660     0.7330 hn         1 S25       0.306500
     19 H2           0.0730    -0.9650     1.5230 h4         1 S25       0.061100
     20 H3           0.1950    -4.4690     3.6160 h4         1 S25       0.023100
     21 H4           3.8330    -3.0560     1.8430 ha         1 S25       0.133000
     22 H5           2.2410    -5.8400     3.5270 hn         1 S25       0.393800
     23 H6           3.6560    -5.2940     2.7950 hn         1 S25       0.393800
     24 H7           4.0410     0.7830    -0.4660 hn         1 S25       0.306500
     25 H8           0.6570     2.3700    -0.4620 ha         1 S25       0.148500
     26 H9           0.1350     4.3840    -1.7210 ha         1 S25       0.134500
     27 H10          1.8630     5.4680    -3.1370 ha         1 S25       0.134000
     28 H11          4.1370     4.4850    -3.2750 ha         1 S25       0.134500
     29 H12          4.6910     2.4400    -2.0170 ha         1 S25       0.148500
@<TRIPOS>BOND
     1     1     2 2   
     2     2     3 1   
     3     2    11 1   
     4     3     4 1   
     5     3    18 1   
     6     4     5 ar  
     7     4     9 ar  
     8     5     6 ar  
     9     5    19 1   
    10     6     7 ar  
    11     7     8 ar  
    12     7    20 1   
    13     8     9 ar  
    14     8    10 1   
    15     9    21 1   
    16    10    22 1   
    17    10    23 1   
    18    11    12 1   
    19    11    24 1   
    20    12    13 ar  
    21    12    17 ar  
    22    13    14 ar  
    23    13    25 1   
    24    14    15 ar  
    25    14    26 1   
    26    15    16 ar  
    27    15    27 1   
    28    16    17 ar  
    29    16    28 1   
    30    17    29 1   
@<TRIPOS>SUBSTRUCTURE
     1 S25         1 TEMP              0 ****  ****    0 ROOT
