@<TRIPOS>MOLECULE
S30
   31    33     1     0     1 
SMALL
USER_CHARGES
@<TRIPOS>ATOM
  1 O1      1.005000    0.416000   -0.024000 o     1 S30    -0.6021 ****
  2 C1      2.161000    0.009000    0.028000 c     1 S30     0.7671 ****
  3 N1      2.775000   -0.684000   -0.998000 ns    1 S30    -0.4521 ****
  4 C2      2.149000   -1.056000   -2.215000 ca    1 S30    -0.0077 ****
  5 C3      0.946000   -0.529000   -2.693000 ca    1 S30     0.3532 ****
  6 N2      0.317000   -0.908000   -3.835000 nb    1 S30    -0.6330 ****
  7 C4      0.865000   -1.879000   -4.590000 ca    1 S30     0.3712 ****
  8 C5      2.069000   -2.443000   -4.193000 ca    1 S30    -0.1495 ****
  9 C6      2.735000   -2.048000   -3.029000 ca    1 S30    -0.1138 ****
 10 C7      3.918000   -2.844000   -2.952000 cc    1 S30    -0.2002 ****
 11 C8      3.934000   -3.691000   -4.036000 cd    1 S30    -0.0941 ****
 12 N3      2.813000   -3.441000   -4.781000 na    1 S30    -0.1804 ****
 13 N4      2.996000    0.171000    1.119000 ns    1 S30    -0.4611 ****
 14 C9      2.587000    0.667000    2.380000 ca    1 S30     0.0586 ****
 15 C10     1.254000    0.641000    2.802000 ca    1 S30    -0.1560 ****
 16 C11     0.892000    1.121000    4.062000 ca    1 S30    -0.1085 ****
 17 C12     1.861000    1.635000    4.916000 ca    1 S30    -0.1490 ****
 18 C13     3.195000    1.665000    4.509000 ca    1 S30    -0.1085 ****
 19 C14     3.560000    1.171000    3.248000 ca    1 S30    -0.1560 ****
 20 H1      3.643000   -1.148000   -0.784000 hn    1 S30     0.3105 ****
 21 H2      0.416000    0.260000   -2.169000 h4    1 S30     0.0591 ****
 22 H3      0.327000   -2.172000   -5.482000 h4    1 S30     0.0231 ****
 23 H4      4.673000   -2.813000   -2.178000 ha    1 S30     0.1520 ****
 24 H5      4.640000   -4.452000   -4.338000 h4    1 S30     0.1690 ****
 25 H6      2.557000   -3.923000   -5.631000 hn    1 S30     0.3047 ****
 26 H7      3.989000    0.125000    0.947000 hn    1 S30     0.3055 ****
 27 H8      0.467000    0.231000    2.175000 ha    1 S30     0.1485 ****
 28 H9     -0.150000    1.091000    4.368000 ha    1 S30     0.1340 ****
 29 H10     1.577000    2.012000    5.895000 ha    1 S30     0.1330 ****
 30 H11     3.950000    2.077000    5.173000 ha    1 S30     0.1340 ****
 31 H12     4.603000    1.222000    2.955000 ha    1 S30     0.1485 ****
@<TRIPOS>BOND
    1     1     2 1
    2     2     3 1
    3     2    13 1
    4     3     4 1
    5     3    20 1
    6     4     5 1
    7     4     9 1
    8     5     6 1
    9     5    21 1
   10     6     7 1
   11     7     8 1
   12     7    22 1
   13     8     9 1
   14     8    12 1
   15     9    10 1
   16    10    11 1
   17    10    23 1
   18    11    12 1
   19    11    24 1
   20    12    25 1
   21    13    14 1
   22    13    26 1
   23    14    15 1
   24    14    19 1
   25    15    16 1
   26    15    27 1
   27    16    17 1
   28    16    28 1
   29    17    18 1
   30    17    29 1
   31    18    19 1
   32    18    30 1
   33    19    31 1
@<TRIPOS>SUBSTRUCTURE
      1  S30              1 ****               0 ****  **** 
