@<TRIPOS>MOLECULE
S33
   30    32     1     0     1 
SMALL
USER_CHARGES
@<TRIPOS>ATOM
  1 O1      0.986000    0.215000    0.343000 o     1 S33    -0.6081 ****
  2 C1      2.166000    0.120000    0.025000 c     1 S33     0.7721 ****
  3 N1      2.788000    0.970000   -0.867000 ns    1 S33    -0.4521 ****
  4 C2      2.133000    2.005000   -1.572000 ca    1 S33     0.0173 ****
  5 C3      0.884000    2.547000   -1.273000 ca    1 S33     0.3522 ****
  6 N2      0.240000    3.496000   -2.008000 nb    1 S33    -0.6290 ****
  7 C4      0.821000    3.970000   -3.131000 ca    1 S33     0.3762 ****
  8 C5      2.076000    3.499000   -3.470000 ca    1 S33    -0.1725 ****
  9 C6      2.746000    2.546000   -2.712000 ca    1 S33     0.0374 ****
 10 N3      3.974000    2.252000   -3.275000 nc    1 S33    -0.5821 ****
 11 C7      4.045000    3.005000   -4.351000 cd    1 S33     0.4297 ****
 12 N4      2.920000    3.764000   -4.516000 na    1 S33    -0.2763 ****
 13 N5      3.027000   -0.851000    0.503000 ns    1 S33    -0.4621 ****
 14 C8      2.627000   -1.983000    1.250000 ca    1 S33     0.0606 ****
 15 C9      1.317000   -2.473000    1.232000 ca    1 S33    -0.1570 ****
 16 C10     0.964000   -3.595000    1.984000 ca    1 S33    -0.1085 ****
 17 C11     1.920000   -4.244000    2.757000 ca    1 S33    -0.1500 ****
 18 C12     3.234000   -3.776000    2.769000 ca    1 S33    -0.1085 ****
 19 C13     3.590000   -2.655000    2.010000 ca    1 S33    -0.1570 ****
 20 H1      3.675000    0.686000   -1.267000 hn    1 S33     0.3295 ****
 21 H2      0.323000    2.239000   -0.396000 h4    1 S33     0.0651 ****
 22 H3      0.264000    4.699000   -3.706000 h4    1 S33     0.0261 ****
 23 H4      4.873000    3.040000   -5.047000 h5    1 S33     0.0728 ****
 24 H5      2.740000    4.401000   -5.279000 hn    1 S33     0.3117 ****
 25 H6      4.009000   -0.619000    0.506000 hn    1 S33     0.3105 ****
 26 H7      0.544000   -2.007000    0.626000 ha    1 S33     0.1490 ****
 27 H8     -0.062000   -3.955000    1.960000 ha    1 S33     0.1340 ****
 28 H9      1.641000   -5.112000    3.348000 ha    1 S33     0.1330 ****
 29 H10     3.979000   -4.280000    3.378000 ha    1 S33     0.1340 ****
 30 H11     4.617000   -2.306000    2.046000 ha    1 S33     0.1490 ****
@<TRIPOS>BOND
    1     1     2 1
    2     2     3 1
    3     2    13 1
    4     3     4 1
    5     3    20 1
    6     4     5 1
    7     4     9 1
    8     5     6 1
    9     5    21 1
   10     6     7 1
   11     7     8 1
   12     7    22 1
   13     8     9 1
   14     8    12 1
   15     9    10 1
   16    10    11 1
   17    11    12 1
   18    11    23 1
   19    12    24 1
   20    13    14 1
   21    13    25 1
   22    14    15 1
   23    14    19 1
   24    15    16 1
   25    15    26 1
   26    16    17 1
   27    16    27 1
   28    17    18 1
   29    17    28 1
   30    18    19 1
   31    18    29 1
   32    19    30 1
@<TRIPOS>SUBSTRUCTURE
      1  S33              1 ****               0 ****  **** 
