@<TRIPOS>MOLECULE
S26
   32    33     1     0     0
SMALL
bcc


@<TRIPOS>ATOM
      1 C1           6.5770    -1.9380    -2.5050 c3         1 S26       0.174100
      2 N1           6.3710    -0.5150    -2.7380 nu         1 S26      -0.727600
      3 C2           5.0620    -0.0260    -2.5970 ca         1 S26       0.055300
      4 C3           4.1400    -0.5320    -1.6770 ca         1 S26       0.321200
      5 N2           2.8900    -0.0520    -1.4870 nb         1 S26      -0.619000
      6 C4           2.5500     1.0420    -2.2100 ca         1 S26       0.350200
      7 C5           3.3960     1.6760    -3.1160 ca         1 S26      -0.016700
      8 C6           4.6660     1.1210    -3.3030 ca         1 S26      -0.217000
      9 N3           3.0150     2.8170    -3.8630 ns         1 S26      -0.459100
     10 C7           1.9950     3.6740    -3.4880 c          1 S26       0.768100
     11 O1           1.4440     3.6490    -2.3960 o          1 S26      -0.599100
     12 N4           1.6450     4.5360    -4.5180 ns         1 S26      -0.461100
     13 C8           0.6450     5.5210    -4.3390 ca         1 S26       0.056600
     14 C9           0.5730     6.2840    -3.1690 ca         1 S26      -0.155000
     15 C10         -0.4550     7.2110    -2.9920 ca         1 S26      -0.108500
     16 C11         -1.4220     7.3740    -3.9800 ca         1 S26      -0.148000
     17 C12         -1.3450     6.6290    -5.1560 ca         1 S26      -0.108500
     18 C13         -0.2990     5.7200    -5.3480 ca         1 S26      -0.155000
     19 H1           7.6130    -2.1970    -2.7440 h1         1 S26       0.040700
     20 H2           5.9250    -2.5390    -3.1490 h1         1 S26       0.040700
     21 H3           6.4090    -2.2100    -1.4580 h1         1 S26       0.040700
     22 H4           6.8110    -0.1980    -3.5980 hn         1 S26       0.397800
     23 H5           4.3810    -1.3670    -1.0280 h4         1 S26       0.024100
     24 H6           1.5320     1.3740    -2.0320 h4         1 S26       0.060100
     25 H7           5.3650     1.5870    -3.9900 ha         1 S26       0.132000
     26 H8           3.6790     3.1860    -4.5300 hn         1 S26       0.306500
     27 H9           1.7140     4.1300    -5.4400 hn         1 S26       0.306500
     28 H10          1.3110     6.1630    -2.3790 ha         1 S26       0.148500
     29 H11         -0.5080     7.7910    -2.0720 ha         1 S26       0.134500
     30 H12         -2.2410     8.0720    -3.8270 ha         1 S26       0.134000
     31 H13         -2.1140     6.7400    -5.9160 ha         1 S26       0.134500
     32 H14         -0.2750     5.1330    -6.2610 ha         1 S26       0.148500
@<TRIPOS>BOND
     1     1     2 1   
     2     1    19 1   
     3     1    20 1   
     4     1    21 1   
     5     2     3 1   
     6     2    22 1   
     7     3     4 ar  
     8     3     8 ar  
     9     4     5 ar  
    10     4    23 1   
    11     5     6 ar  
    12     6     7 ar  
    13     6    24 1   
    14     7     8 ar  
    15     7     9 1   
    16     8    25 1   
    17     9    10 1   
    18     9    26 1   
    19    10    11 2   
    20    10    12 1   
    21    12    13 1   
    22    12    27 1   
    23    13    14 ar  
    24    13    18 ar  
    25    14    15 ar  
    26    14    28 1   
    27    15    16 ar  
    28    15    29 1   
    29    16    17 ar  
    30    16    30 1   
    31    17    18 ar  
    32    17    31 1   
    33    18    32 1   
@<TRIPOS>SUBSTRUCTURE
     1 S26         1 TEMP              0 ****  ****    0 ROOT
