@<TRIPOS>MOLECULE
S45
   37    39     1     0     0
SMALL
bcc


@<TRIPOS>ATOM
      1 O1           1.0840    -0.3670    -0.4530 o          1 S45      -0.587100
      2 C1           2.1770    -0.1020     0.0570 c          1 S45       0.665100
      3 N1           2.6530    -0.6800     1.2080 ns         1 S45      -0.457100
      4 C2           1.9610    -1.6710     1.9430 ca         1 S45       0.023300
      5 C3           0.8780    -2.4230     1.4830 ca         1 S45       0.335200
      6 N2           0.1720    -3.3260     2.2150 nb         1 S45      -0.626000
      7 C4           0.5070    -3.5310     3.5040 ca         1 S45       0.368200
      8 C5           1.5850    -2.8400     4.0240 ca         1 S45      -0.168500
      9 C6           2.3260    -1.9330     3.2720 ca         1 S45       0.032400
     10 N3           3.3380    -1.3850     4.0400 nc         1 S45      -0.579100
     11 C7           3.2000    -1.9260     5.2300 cd         1 S45       0.425700
     12 N4           2.1540    -2.8070     5.2700 na         1 S45      -0.277300
     13 C8           2.9940     1.0170    -0.5530 c3         1 S45      -0.152400
     14 C9           4.5220     0.8840    -0.5840 c3         1 S45      -0.056700
     15 C10          5.0080    -0.3700    -1.3290 c3         1 S45      -0.075400
     16 C11          4.7860    -0.3010    -2.8390 c3         1 S45      -0.077400
     17 C12          5.3700     0.9710    -3.4490 c3         1 S45      -0.077400
     18 C13          4.8820     2.2270    -2.7340 c3         1 S45      -0.077400
     19 C14          5.1390     2.1430    -1.2280 c3         1 S45      -0.075400
     20 H1           3.4570    -0.2810     1.6840 hn         1 S45       0.336500
     21 H2           0.5200    -2.3380     0.4590 h4         1 S45       0.065100
     22 H3          -0.1030    -4.2280     4.0690 h4         1 S45       0.025100
     23 H4           3.8110    -1.7180     6.0980 h5         1 S45       0.071800
     24 H5           1.8440    -3.3250     6.0790 hn         1 S45       0.310700
     25 H6           2.7110     1.9400    -0.0320 hc         1 S45       0.075200
     26 H7           2.6210     1.1150    -1.5790 hc         1 S45       0.075200
     27 H8           4.8870     0.8270     0.4500 hc         1 S45       0.045700
     28 H9           4.5270    -1.2700    -0.9290 hc         1 S45       0.044950
     29 H10          6.0840    -0.4910    -1.1420 hc         1 S45       0.044950
     30 H11          3.7140    -0.3570    -3.0610 hc         1 S45       0.042700
     31 H12          5.2480    -1.1750    -3.3140 hc         1 S45       0.042700
     32 H13          5.1060     1.0250    -4.5110 hc         1 S45       0.040700
     33 H14          6.4640     0.9290    -3.3940 hc         1 S45       0.040700
     34 H15          3.8130     2.3710    -2.9300 hc         1 S45       0.042700
     35 H16          5.3900     3.1060    -3.1460 hc         1 S45       0.042700
     36 H17          4.7520     3.0470    -0.7410 hc         1 S45       0.044950
     37 H18          6.2240     2.1390    -1.0560 hc         1 S45       0.044950
@<TRIPOS>BOND
     1     1     2 2   
     2     2     3 1   
     3     2    13 1   
     4     3     4 1   
     5     3    20 1   
     6     4     5 ar  
     7     4     9 ar  
     8     5     6 ar  
     9     5    21 1   
    10     6     7 ar  
    11     7     8 ar  
    12     7    22 1   
    13     8     9 ar  
    14     8    12 1   
    15     9    10 1   
    16    10    11 2   
    17    11    12 1   
    18    11    23 1   
    19    12    24 1   
    20    13    14 1   
    21    13    25 1   
    22    13    26 1   
    23    14    15 1   
    24    14    19 1   
    25    14    27 1   
    26    15    16 1   
    27    15    28 1   
    28    15    29 1   
    29    16    17 1   
    30    16    30 1   
    31    16    31 1   
    32    17    18 1   
    33    17    32 1   
    34    17    33 1   
    35    18    19 1   
    36    18    34 1   
    37    18    35 1   
    38    19    36 1   
    39    19    37 1   
@<TRIPOS>SUBSTRUCTURE
     1 S45         1 TEMP              0 ****  ****    0 ROOT
