@<TRIPOS>MOLECULE
S30
   31    33     1     0     0
SMALL
bcc


@<TRIPOS>ATOM
      1 O1           1.0050     0.4160    -0.0240 o          1 S30      -0.602100
      2 C1           2.1610     0.0090     0.0280 c          1 S30       0.767100
      3 N1           2.7750    -0.6840    -0.9980 ns         1 S30      -0.452100
      4 C2           2.1490    -1.0560    -2.2150 ca         1 S30      -0.007700
      5 C3           0.9460    -0.5290    -2.6930 ca         1 S30       0.353200
      6 N2           0.3170    -0.9080    -3.8350 nb         1 S30      -0.633000
      7 C4           0.8650    -1.8790    -4.5900 ca         1 S30       0.371200
      8 C5           2.0690    -2.4430    -4.1930 ca         1 S30      -0.149500
      9 C6           2.7350    -2.0480    -3.0290 ca         1 S30      -0.113800
     10 C7           3.9180    -2.8440    -2.9520 cc         1 S30      -0.200200
     11 C8           3.9340    -3.6910    -4.0360 cd         1 S30      -0.094100
     12 N3           2.8130    -3.4410    -4.7810 na         1 S30      -0.180400
     13 N4           2.9960     0.1710     1.1190 ns         1 S30      -0.461100
     14 C9           2.5870     0.6670     2.3800 ca         1 S30       0.058600
     15 C10          1.2540     0.6410     2.8020 ca         1 S30      -0.156000
     16 C11          0.8920     1.1210     4.0620 ca         1 S30      -0.108500
     17 C12          1.8610     1.6350     4.9160 ca         1 S30      -0.149000
     18 C13          3.1950     1.6650     4.5090 ca         1 S30      -0.108500
     19 C14          3.5600     1.1710     3.2480 ca         1 S30      -0.156000
     20 H1           3.6430    -1.1480    -0.7840 hn         1 S30       0.310500
     21 H2           0.4160     0.2600    -2.1690 h4         1 S30       0.059100
     22 H3           0.3270    -2.1720    -5.4820 h4         1 S30       0.023100
     23 H4           4.6730    -2.8130    -2.1780 ha         1 S30       0.152000
     24 H5           4.6400    -4.4520    -4.3380 h4         1 S30       0.169000
     25 H6           2.5570    -3.9230    -5.6310 hn         1 S30       0.304700
     26 H7           3.9890     0.1250     0.9470 hn         1 S30       0.305500
     27 H8           0.4670     0.2310     2.1750 ha         1 S30       0.148500
     28 H9          -0.1500     1.0910     4.3680 ha         1 S30       0.134000
     29 H10          1.5770     2.0120     5.8950 ha         1 S30       0.133000
     30 H11          3.9500     2.0770     5.1730 ha         1 S30       0.134000
     31 H12          4.6030     1.2220     2.9550 ha         1 S30       0.148500
@<TRIPOS>BOND
     1     1     2 2   
     2     2     3 1   
     3     2    13 1   
     4     3     4 1   
     5     3    20 1   
     6     4     5 ar  
     7     4     9 ar  
     8     5     6 ar  
     9     5    21 1   
    10     6     7 ar  
    11     7     8 ar  
    12     7    22 1   
    13     8     9 ar  
    14     8    12 1   
    15     9    10 1   
    16    10    11 2   
    17    10    23 1   
    18    11    12 1   
    19    11    24 1   
    20    12    25 1   
    21    13    14 1   
    22    13    26 1   
    23    14    15 ar  
    24    14    19 ar  
    25    15    16 ar  
    26    15    27 1   
    27    16    17 ar  
    28    16    28 1   
    29    17    18 ar  
    30    17    29 1   
    31    18    19 ar  
    32    18    30 1   
    33    19    31 1   
@<TRIPOS>SUBSTRUCTURE
     1 S30         1 TEMP              0 ****  ****    0 ROOT
