@<TRIPOS>MOLECULE
S46
   37    39     1     0     1 
SMALL
USER_CHARGES
@<TRIPOS>ATOM
  1 O1      2.343000   -0.349000   -1.123000 o     1 S46    -0.5801 ****
  2 C1      1.975000    0.242000   -0.116000 c     1 S46     0.6661 ****
  3 N1      0.653000    0.507000    0.230000 ns    1 S46    -0.4631 ****
  4 C2     -0.506000    0.233000   -0.539000 ca    1 S46     0.0263 ****
  5 C3     -0.516000   -0.341000   -1.810000 ca    1 S46     0.3292 ****
  6 N2     -1.627000   -0.574000   -2.566000 nb    1 S46    -0.6170 ****
  7 C4     -2.841000   -0.236000   -2.081000 ca    1 S46     0.3642 ****
  8 C5     -2.913000    0.328000   -0.820000 ca    1 S46    -0.1435 ****
  9 C6     -1.784000    0.565000   -0.038000 ca    1 S46    -0.2429 ****
 10 C7     -2.316000    1.134000    1.145000 cc    1 S46     0.3358 ****
 11 N3     -3.646000    1.254000    1.120000 nd    1 S46    -0.4981 ****
 12 N4     -3.982000    0.760000   -0.083000 na    1 S46    -0.0131 ****
 13 C8      2.950000    0.793000    0.931000 c3    1 S46    -0.1484 ****
 14 C9      4.442000    0.464000    0.704000 c3    1 S46    -0.0587 ****
 15 C10     5.084000    1.192000   -0.490000 c3    1 S46    -0.0774 ****
 16 C11     5.323000    2.685000   -0.265000 c3    1 S46    -0.0774 ****
 17 C12     6.013000    3.008000    1.057000 c3    1 S46    -0.0774 ****
 18 C13     5.438000    2.250000    2.248000 c3    1 S46    -0.0774 ****
 19 C14     5.275000    0.757000    1.967000 c3    1 S46    -0.0774 ****
 20 H1      0.495000    0.943000    1.129000 hn    1 S46     0.3205 ****
 21 H2      0.400000   -0.648000   -2.307000 h4    1 S46     0.0651 ****
 22 H3     -3.700000   -0.428000   -2.713000 h4    1 S46     0.0291 ****
 23 H4     -1.787000    1.469000    2.027000 h4    1 S46     0.0508 ****
 24 H5     -4.965000    0.743000   -0.340000 hn    1 S46     0.3307 ****
 25 H6      2.645000    0.353000    1.891000 hc    1 S46     0.0707 ****
 26 H7      2.795000    1.875000    0.999000 hc    1 S46     0.0707 ****
 27 H8      4.513000   -0.614000    0.507000 hc    1 S46     0.0697 ****
 28 H9      4.488000    1.056000   -1.398000 hc    1 S46     0.0462 ****
 29 H10     6.056000    0.720000   -0.693000 hc    1 S46     0.0462 ****
 30 H11     4.369000    3.220000   -0.320000 hc    1 S46     0.0382 ****
 31 H12     5.942000    3.072000   -1.085000 hc    1 S46     0.0382 ****
 32 H13     5.943000    4.087000    1.246000 hc    1 S46     0.0427 ****
 33 H14     7.083000    2.781000    0.971000 hc    1 S46     0.0427 ****
 34 H15     4.472000    2.684000    2.530000 hc    1 S46     0.0382 ****
 35 H16     6.102000    2.386000    3.110000 hc    1 S46     0.0382 ****
 36 H17     4.828000    0.268000    2.841000 hc    1 S46     0.0462 ****
 37 H18     6.273000    0.314000    1.844000 hc    1 S46     0.0462 ****
@<TRIPOS>BOND
    1     1     2 1
    2     2     3 1
    3     2    13 1
    4     3     4 1
    5     3    20 1
    6     4     5 1
    7     4     9 1
    8     5     6 1
    9     5    21 1
   10     6     7 1
   11     7     8 1
   12     7    22 1
   13     8     9 1
   14     8    12 1
   15     9    10 1
   16    10    11 1
   17    10    23 1
   18    11    12 1
   19    12    24 1
   20    13    14 1
   21    13    25 1
   22    13    26 1
   23    14    15 1
   24    14    19 1
   25    14    27 1
   26    15    16 1
   27    15    28 1
   28    15    29 1
   29    16    17 1
   30    16    30 1
   31    16    31 1
   32    17    18 1
   33    17    32 1
   34    17    33 1
   35    18    19 1
   36    18    34 1
   37    18    35 1
   38    19    36 1
   39    19    37 1
@<TRIPOS>SUBSTRUCTURE
      1  S46              1 ****               0 ****  **** 
