@<TRIPOS>MOLECULE
S37
   36    37     1     0     1 
SMALL
USER_CHARGES
@<TRIPOS>ATOM
  1 O1      1.453000   -0.702000   -0.630000 o     1 S37    -0.5811 ****
  2 C1      2.237000    0.042000   -0.046000 c     1 S37     0.6671 ****
  3 N1      2.455000    0.059000    1.321000 ns    1 S37    -0.4691 ****
  4 C2      1.723000   -0.701000    2.266000 ca    1 S37    -0.0057 ****
  5 C3      0.514000   -1.337000    1.991000 ca    1 S37     0.3312 ****
  6 N2     -0.207000   -2.037000    2.898000 nb    1 S37    -0.6150 ****
  7 C4      0.316000   -2.125000    4.139000 ca    1 S37     0.3092 ****
  8 C5      1.542000   -1.586000    4.523000 ca    1 S37     0.0523 ****
  9 C6      2.213000   -0.807000    3.574000 ca    1 S37    -0.2250 ****
 10 N3      1.972000   -1.622000    5.857000 nv    1 S37    -0.8142 ****
 11 C7      3.036000    1.057000   -0.836000 c3    1 S37    -0.1554 ****
 12 C8      4.562000    0.863000   -0.823000 c3    1 S37    -0.0557 ****
 13 C9      5.009000   -0.542000   -1.260000 c3    1 S37    -0.0759 ****
 14 C10     4.785000   -0.811000   -2.747000 c3    1 S37    -0.0774 ****
 15 C11     5.419000    0.267000   -3.623000 c3    1 S37    -0.0784 ****
 16 C12     4.992000    1.672000   -3.212000 c3    1 S37    -0.0774 ****
 17 C13     5.234000    1.920000   -1.721000 c3    1 S37    -0.0759 ****
 18 H1      3.242000    0.590000    1.667000 hn    1 S37     0.3155 ****
 19 H2      0.034000   -1.280000    1.018000 h4    1 S37     0.0621 ****
 20 H3     -0.302000   -2.671000    4.846000 h4    1 S37     0.0221 ****
 21 H4      3.133000   -0.302000    3.857000 ha    1 S37     0.1330 ****
 22 H5      1.612000   -2.418000    6.379000 hn    1 S37     0.3928 ****
 23 H6      2.975000   -1.517000    5.973000 hn    1 S37     0.3928 ****
 24 H7      2.782000    2.054000   -0.454000 hc    1 S37     0.0757 ****
 25 H8      2.650000    1.020000   -1.861000 hc    1 S37     0.0757 ****
 26 H9      4.916000    1.020000    0.204000 hc    1 S37     0.0387 ****
 27 H10     4.507000   -1.314000   -0.666000 hc    1 S37     0.0447 ****
 28 H11     6.082000   -0.647000   -1.046000 hc    1 S37     0.0447 ****
 29 H12     3.711000   -0.872000   -2.955000 hc    1 S37     0.0437 ****
 30 H13     5.212000   -1.786000   -3.008000 hc    1 S37     0.0437 ****
 31 H14     5.151000    0.091000   -4.671000 hc    1 S37     0.0412 ****
 32 H15     6.511000    0.190000   -3.558000 hc    1 S37     0.0412 ****
 33 H16     3.934000    1.819000   -3.454000 hc    1 S37     0.0437 ****
 34 H17     5.546000    2.411000   -3.801000 hc    1 S37     0.0437 ****
 35 H18     4.882000    2.924000   -1.454000 hc    1 S37     0.0447 ****
 36 H19     6.316000    1.910000   -1.535000 hc    1 S37     0.0447 ****
@<TRIPOS>BOND
    1     1     2 1
    2     2     3 1
    3     2    11 1
    4     3     4 1
    5     3    18 1
    6     4     5 1
    7     4     9 1
    8     5     6 1
    9     5    19 1
   10     6     7 1
   11     7     8 1
   12     7    20 1
   13     8     9 1
   14     8    10 1
   15     9    21 1
   16    10    22 1
   17    10    23 1
   18    11    12 1
   19    11    24 1
   20    11    25 1
   21    12    13 1
   22    12    17 1
   23    12    26 1
   24    13    14 1
   25    13    27 1
   26    13    28 1
   27    14    15 1
   28    14    29 1
   29    14    30 1
   30    15    16 1
   31    15    31 1
   32    15    32 1
   33    16    17 1
   34    16    33 1
   35    16    34 1
   36    17    35 1
   37    17    36 1
@<TRIPOS>SUBSTRUCTURE
      1  S37              1 ****               0 ****  **** 
