@<TRIPOS>MOLECULE
S27
   35    36     1     0     0
SMALL
bcc


@<TRIPOS>ATOM
      1 O1           2.6420     2.7520     1.9630 o          1 S27      -0.600100
      2 C1           2.2470     1.8070     1.2860 c          1 S27       0.768100
      3 N1           0.9360     1.3700     1.2400 ns         1 S27      -0.461100
      4 C2          -0.1330     1.9690     1.9550 ca         1 S27       0.057600
      5 C3          -0.0580     3.2580     2.4960 ca         1 S27      -0.155000
      6 C4          -1.1070     3.7890     3.2500 ca         1 S27      -0.108500
      7 C5          -2.2580     3.0420     3.4570 ca         1 S27      -0.149000
      8 C6          -2.3630     1.7690     2.8980 ca         1 S27      -0.108500
      9 C7          -1.3090     1.2360     2.1430 ca         1 S27      -0.155000
     10 N2           3.0940     1.0560     0.4970 ns         1 S27      -0.459100
     11 C8           4.5100     1.2030     0.4930 ca         1 S27      -0.019700
     12 C9           5.2280     1.8270     1.5110 ca         1 S27       0.350200
     13 N3           6.5710     1.9360     1.5360 nb         1 S27      -0.621000
     14 C10          7.2360     1.4070     0.4830 ca         1 S27       0.321200
     15 C11          6.6570     0.7650    -0.6190 ca         1 S27       0.069300
     16 C12          5.2550     0.6740    -0.5740 ca         1 S27      -0.214000
     17 N4           7.4040     0.2730    -1.6760 nh         1 S27      -0.648000
     18 C13          8.7130     0.8250    -2.0220 c3         1 S27       0.183100
     19 C14          6.9770    -0.8700    -2.4710 c3         1 S27       0.183100
     20 H1           0.7740     0.4460     0.8690 hn         1 S27       0.305500
     21 H2           0.8120     3.8900     2.3530 ha         1 S27       0.148500
     22 H3          -1.0050     4.7840     3.6760 ha         1 S27       0.134000
     23 H4          -3.0680     3.4530     4.0530 ha         1 S27       0.134000
     24 H5          -3.2650     1.1860     3.0640 ha         1 S27       0.134000
     25 H6          -1.4170     0.2330     1.7400 ha         1 S27       0.148500
     26 H7           2.6840     0.5080    -0.2450 hn         1 S27       0.306500
     27 H8           4.7520     2.2540     2.3900 h4         1 S27       0.060100
     28 H9           8.3140     1.4960     0.5820 h4         1 S27       0.024100
     29 H10          4.7220     0.2330    -1.4090 ha         1 S27       0.134000
     30 H11          9.0020     1.7020    -1.4350 h1         1 S27       0.039700
     31 H12          8.7060     1.1440    -3.0700 h1         1 S27       0.039700
     32 H13          9.4920     0.0630    -1.9050 h1         1 S27       0.039700
     33 H14          6.0320    -1.3120    -2.1470 h1         1 S27       0.039700
     34 H15          7.7310    -1.6650    -2.4080 h1         1 S27       0.039700
     35 H16          6.8800    -0.5790    -3.5220 h1         1 S27       0.039700
@<TRIPOS>BOND
     1     1     2 2   
     2     2     3 1   
     3     2    10 1   
     4     3     4 1   
     5     3    20 1   
     6     4     5 ar  
     7     4     9 ar  
     8     5     6 ar  
     9     5    21 1   
    10     6     7 ar  
    11     6    22 1   
    12     7     8 ar  
    13     7    23 1   
    14     8     9 ar  
    15     8    24 1   
    16     9    25 1   
    17    10    11 1   
    18    10    26 1   
    19    11    12 ar  
    20    11    16 ar  
    21    12    13 ar  
    22    12    27 1   
    23    13    14 ar  
    24    14    15 ar  
    25    14    28 1   
    26    15    16 ar  
    27    15    17 1   
    28    16    29 1   
    29    17    18 1   
    30    17    19 1   
    31    18    30 1   
    32    18    31 1   
    33    18    32 1   
    34    19    33 1   
    35    19    34 1   
    36    19    35 1   
@<TRIPOS>SUBSTRUCTURE
     1 S27         1 TEMP              0 ****  ****    0 ROOT
