@<TRIPOS>MOLECULE
S25
   29    30     1     0     1 
SMALL
USER_CHARGES
@<TRIPOS>ATOM
  1 O1      0.953000    0.168000   -0.169000 o     1 S25    -0.5991 ****
  2 C1      2.158000    0.121000    0.041000 c     1 S25     0.7691 ****
  3 N1      2.764000   -0.868000    0.796000 ns    1 S25    -0.4591 ****
  4 C2      2.062000   -1.859000    1.530000 ca    1 S25    -0.0137 ****
  5 C3      0.700000   -1.795000    1.830000 ca    1 S25     0.3482 ****
  6 N2      0.031000   -2.717000    2.563000 nb    1 S25    -0.6170 ****
  7 C4      0.754000   -3.768000    3.003000 ca    1 S25     0.3162 ****
  8 C5      2.102000   -3.977000    2.718000 ca    1 S25     0.0503 ****
  9 C6      2.767000   -2.964000    2.019000 ca    1 S25    -0.2190 ****
 10 N3      2.817000   -5.032000    3.304000 nv    1 S25    -0.8142 ****
 11 N4      3.067000    1.042000   -0.456000 ns    1 S25    -0.4611 ****
 12 C7      2.715000    2.224000   -1.153000 ca    1 S25     0.0566 ****
 13 C8      1.440000    2.798000   -1.081000 ca    1 S25    -0.1550 ****
 14 C9      1.134000    3.961000   -1.790000 ca    1 S25    -0.1085 ****
 15 C10     2.104000    4.567000   -2.579000 ca    1 S25    -0.1480 ****
 16 C11     3.382000    4.014000   -2.651000 ca    1 S25    -0.1085 ****
 17 C12     3.691000    2.853000   -1.931000 ca    1 S25    -0.1550 ****
 18 H1      3.765000   -0.966000    0.733000 hn    1 S25     0.3065 ****
 19 H2      0.073000   -0.965000    1.523000 h4    1 S25     0.0611 ****
 20 H3      0.195000   -4.469000    3.616000 h4    1 S25     0.0231 ****
 21 H4      3.833000   -3.056000    1.843000 ha    1 S25     0.1330 ****
 22 H5      2.241000   -5.840000    3.527000 hn    1 S25     0.3938 ****
 23 H6      3.656000   -5.294000    2.795000 hn    1 S25     0.3938 ****
 24 H7      4.041000    0.783000   -0.466000 hn    1 S25     0.3065 ****
 25 H8      0.657000    2.370000   -0.462000 ha    1 S25     0.1485 ****
 26 H9      0.135000    4.384000   -1.721000 ha    1 S25     0.1345 ****
 27 H10     1.863000    5.468000   -3.137000 ha    1 S25     0.1340 ****
 28 H11     4.137000    4.485000   -3.275000 ha    1 S25     0.1345 ****
 29 H12     4.691000    2.440000   -2.017000 ha    1 S25     0.1485 ****
@<TRIPOS>BOND
    1     1     2 1
    2     2     3 1
    3     2    11 1
    4     3     4 1
    5     3    18 1
    6     4     5 1
    7     4     9 1
    8     5     6 1
    9     5    19 1
   10     6     7 1
   11     7     8 1
   12     7    20 1
   13     8     9 1
   14     8    10 1
   15     9    21 1
   16    10    22 1
   17    10    23 1
   18    11    12 1
   19    11    24 1
   20    12    13 1
   21    12    17 1
   22    13    14 1
   23    13    25 1
   24    14    15 1
   25    14    26 1
   26    15    16 1
   27    15    27 1
   28    16    17 1
   29    16    28 1
   30    17    29 1
@<TRIPOS>SUBSTRUCTURE
      1  S25              1 ****               0 ****  **** 
