@<TRIPOS>MOLECULE
S44
   37    39     1     0     1 
SMALL
USER_CHARGES
@<TRIPOS>ATOM
  1 O1      1.194000   -0.152000    0.843000 o     1 S44    -0.5691 ****
  2 C1      2.231000    0.089000    0.222000 c     1 S44     0.6721 ****
  3 N1      2.637000    1.357000   -0.150000 ns    1 S44    -0.4821 ****
  4 C2      1.973000    2.535000    0.186000 cc    1 S44     0.0030 ****
  5 C3      1.129000    2.654000    1.244000 cd    1 S44     0.3332 ****
  6 N2      0.405000    3.791000    1.575000 nd    1 S44    -0.6300 ****
  7 C4      0.523000    4.831000    0.798000 cc    1 S44     0.4342 ****
  8 C5      1.405000    4.823000   -0.331000 cc    1 S44    -0.1376 ****
  9 N3      2.128000    3.686000   -0.601000 na    1 S44    -0.0003 ****
 10 C6      2.876000    3.973000   -1.717000 cc    1 S44    -0.2341 ****
 11 C7      2.535000    5.263000   -2.067000 cd    1 S44     0.0166 ****
 12 N4      1.622000    5.791000   -1.188000 nd    1 S44    -0.2656 ****
 13 C8      3.049000   -1.077000   -0.301000 c3    1 S44    -0.1514 ****
 14 C9      4.581000   -0.974000   -0.247000 c3    1 S44    -0.0557 ****
 15 C10     5.122000   -0.662000    1.157000 c3    1 S44    -0.0759 ****
 16 C11     4.901000   -1.809000    2.140000 c3    1 S44    -0.0779 ****
 17 C12     5.501000   -3.114000    1.623000 c3    1 S44    -0.0784 ****
 18 C13     5.032000   -3.458000    0.212000 c3    1 S44    -0.0779 ****
 19 C14     5.214000   -2.286000   -0.757000 c3    1 S44    -0.0759 ****
 20 H1      3.356000    1.419000   -0.860000 hn    1 S44     0.3245 ****
 21 H2      0.969000    1.830000    1.933000 h4    1 S44     0.0701 ****
 22 H3     -0.065000    5.737000    1.012000 h4    1 S44     0.0541 ****
 23 H4      3.555000    3.266000   -2.169000 h4    1 S44     0.1780 ****
 24 H5      2.897000    5.840000   -2.910000 h4    1 S44     0.1850 ****
 25 H6      2.724000   -1.265000   -1.332000 hc    1 S44     0.0782 ****
 26 H7      2.722000   -1.942000    0.286000 hc    1 S44     0.0782 ****
 27 H8      4.897000   -0.167000   -0.920000 hc    1 S44     0.0407 ****
 28 H9      4.675000    0.256000    1.553000 hc    1 S44     0.0457 ****
 29 H10     6.201000   -0.468000    1.082000 hc    1 S44     0.0457 ****
 30 H11     3.828000   -1.942000    2.326000 hc    1 S44     0.0442 ****
 31 H12     5.355000   -1.556000    3.104000 hc    1 S44     0.0442 ****
 32 H13     5.242000   -3.932000    2.305000 hc    1 S44     0.0422 ****
 33 H14     6.595000   -3.031000    1.627000 hc    1 S44     0.0422 ****
 34 H15     3.979000   -3.761000    0.241000 hc    1 S44     0.0442 ****
 35 H16     5.589000   -4.326000   -0.157000 hc    1 S44     0.0442 ****
 36 H17     4.795000   -2.553000   -1.735000 hc    1 S44     0.0457 ****
 37 H18     6.288000   -2.125000   -0.914000 hc    1 S44     0.0457 ****
@<TRIPOS>BOND
    1     1     2 1
    2     2     3 1
    3     2    13 1
    4     3     4 1
    5     3    20 1
    6     4     5 1
    7     4     9 1
    8     5     6 1
    9     5    21 1
   10     6     7 1
   11     7     8 1
   12     7    22 1
   13     8     9 1
   14     8    12 1
   15     9    10 1
   16    10    11 1
   17    10    23 1
   18    11    12 1
   19    11    24 1
   20    13    14 1
   21    13    25 1
   22    13    26 1
   23    14    15 1
   24    14    19 1
   25    14    27 1
   26    15    16 1
   27    15    28 1
   28    15    29 1
   29    16    17 1
   30    16    30 1
   31    16    31 1
   32    17    18 1
   33    17    32 1
   34    17    33 1
   35    18    19 1
   36    18    34 1
   37    18    35 1
   38    19    36 1
   39    19    37 1
@<TRIPOS>SUBSTRUCTURE
      1  S44              1 ****               0 ****  **** 
