@<TRIPOS>MOLECULE
S24
   27    28     1     0     1 
SMALL
USER_CHARGES
@<TRIPOS>ATOM
  1 O1      1.115000   -0.022000   -0.328000 o     1 S24    -0.6071 ****
  2 C1      2.300000    0.059000   -0.021000 c     1 S24     0.7691 ****
  3 N1      2.911000   -0.722000    0.947000 ns    1 S24    -0.4591 ****
  4 C2      2.264000   -1.706000    1.738000 ca    1 S24    -0.0527 ****
  5 C3      0.991000   -2.211000    1.472000 ca    1 S24    -0.1040 ****
  6 C4      0.410000   -3.135000    2.338000 ca    1 S24    -0.2223 ****
  7 C5      1.130000   -3.543000    3.447000 ca    1 S24     0.3672 ****
  8 N2      2.376000   -3.107000    3.728000 nb    1 S24    -0.6440 ****
  9 C6      2.910000   -2.205000    2.867000 ca    1 S24     0.3482 ****
 10 N3      3.188000    0.959000   -0.590000 ns    1 S24    -0.4601 ****
 11 C7      2.816000    2.015000   -1.456000 ca    1 S24     0.0566 ****
 12 C8      1.518000    2.537000   -1.499000 ca    1 S24    -0.1550 ****
 13 C9      1.196000    3.587000   -2.360000 ca    1 S24    -0.1085 ****
 14 C10     2.171000    4.133000   -3.187000 ca    1 S24    -0.1480 ****
 15 C11     3.470000    3.629000   -3.148000 ca    1 S24    -0.1085 ****
 16 C12     3.796000    2.581000   -2.279000 ca    1 S24    -0.1550 ****
 17 H1      3.827000   -0.429000    1.247000 hn    1 S24     0.3095 ****
 18 H2      0.419000   -1.909000    0.599000 ha    1 S24     0.1760 ****
 19 H3     -0.587000   -3.518000    2.148000 ha    1 S24     0.1470 ****
 20 H4      0.709000   -4.249000    4.155000 h4    1 S24     0.0241 ****
 21 H5      3.907000   -1.873000    3.141000 h4    1 S24     0.0171 ****
 22 H6      4.167000    0.714000   -0.567000 hn    1 S24     0.3075 ****
 23 H7      0.732000    2.153000   -0.856000 ha    1 S24     0.1480 ****
 24 H8      0.180000    3.974000   -2.377000 ha    1 S24     0.1345 ****
 25 H9      1.917000    4.948000   -3.859000 ha    1 S24     0.1340 ****
 26 H10     4.230000    4.051000   -3.800000 ha    1 S24     0.1345 ****
 27 H11     4.814000    2.203000   -2.278000 ha    1 S24     0.1480 ****
@<TRIPOS>BOND
    1     1     2 1
    2     2     3 1
    3     2    10 1
    4     3     4 1
    5     3    17 1
    6     4     5 1
    7     4     9 1
    8     5     6 1
    9     5    18 1
   10     6     7 1
   11     6    19 1
   12     7     8 1
   13     7    20 1
   14     8     9 1
   15     9    21 1
   16    10    11 1
   17    10    22 1
   18    11    12 1
   19    11    16 1
   20    12    13 1
   21    12    23 1
   22    13    14 1
   23    13    24 1
   24    14    15 1
   25    14    25 1
   26    15    16 1
   27    15    26 1
   28    16    27 1
@<TRIPOS>SUBSTRUCTURE
      1  S24              1 ****               0 ****  **** 
