@<TRIPOS>MOLECULE
S38
   39    40     1     0     1 
SMALL
USER_CHARGES
@<TRIPOS>ATOM
  1 C1      6.705000    1.976000    1.256000 c3    1 S38     0.1731 ****
  2 N1      6.364000    0.864000    2.129000 nu    1 S38    -0.7266 ****
  3 C2      5.046000    0.406000    2.197000 ca    1 S38     0.0573 ****
  4 C3      4.041000    0.785000    1.304000 ca    1 S38     0.3142 ****
  5 N2      2.791000    0.274000    1.272000 nb    1 S38    -0.6170 ****
  6 C4      2.512000   -0.680000    2.187000 ca    1 S38     0.3332 ****
  7 C5      3.413000   -1.147000    3.141000 ca    1 S38    -0.0087 ****
  8 C6      4.706000   -0.607000    3.112000 ca    1 S38    -0.2230 ****
  9 N3      3.090000   -2.143000    4.103000 ns    1 S38    -0.4681 ****
 10 C7      1.792000   -2.504000    4.435000 c     1 S38     0.6671 ****
 11 O1      0.788000   -1.929000    4.032000 o     1 S38    -0.5841 ****
 12 C8      1.688000   -3.661000    5.422000 c3    1 S38    -0.1494 ****
 13 C9      0.348000   -4.415000    5.255000 c3    1 S38    -0.0587 ****
 14 C10     0.232000   -5.116000    3.885000 c3    1 S38    -0.0774 ****
 15 C11     1.051000   -6.401000    3.791000 c3    1 S38    -0.0774 ****
 16 C12     0.697000   -7.360000    4.919000 c3    1 S38    -0.0774 ****
 17 C13     0.890000   -6.702000    6.280000 c3    1 S38    -0.0774 ****
 18 C14     0.087000   -5.408000    6.398000 c3    1 S38    -0.0774 ****
 19 H1      7.758000    2.241000    1.393000 h1    1 S38     0.0400 ****
 20 H2      6.105000    2.867000    1.470000 h1    1 S38     0.0400 ****
 21 H3      6.575000    1.695000    0.204000 h1    1 S38     0.0400 ****
 22 H4      6.870000    0.841000    3.009000 hn    1 S38     0.3968 ****
 23 H5      4.209000    1.546000    0.549000 h4    1 S38     0.0231 ****
 24 H6      1.509000   -1.085000    2.085000 h4    1 S38     0.0621 ****
 25 H7      5.457000   -0.957000    3.814000 ha    1 S38     0.1320 ****
 26 H8      3.850000   -2.532000    4.645000 hn    1 S38     0.3155 ****
 27 H9      1.728000   -3.213000    6.421000 hc    1 S38     0.0692 ****
 28 H10     2.547000   -4.336000    5.325000 hc    1 S38     0.0692 ****
 29 H11    -0.457000   -3.668000    5.302000 hc    1 S38     0.0697 ****
 30 H12     0.521000   -4.443000    3.070000 hc    1 S38     0.0459 ****
 31 H13    -0.824000   -5.364000    3.710000 hc    1 S38     0.0459 ****
 32 H14     2.121000   -6.166000    3.826000 hc    1 S38     0.0379 ****
 33 H15     0.864000   -6.882000    2.825000 hc    1 S38     0.0379 ****
 34 H16     1.317000   -8.262000    4.849000 hc    1 S38     0.0422 ****
 35 H17    -0.346000   -7.684000    4.811000 hc    1 S38     0.0422 ****
 36 H18     1.954000   -6.494000    6.441000 hc    1 S38     0.0379 ****
 37 H19     0.578000   -7.397000    7.068000 hc    1 S38     0.0379 ****
 38 H20     0.284000   -4.937000    7.367000 hc    1 S38     0.0459 ****
 39 H21    -0.981000   -5.667000    6.393000 hc    1 S38     0.0459 ****
@<TRIPOS>BOND
    1     1     2 1
    2     1    19 1
    3     1    20 1
    4     1    21 1
    5     2     3 1
    6     2    22 1
    7     3     4 1
    8     3     8 1
    9     4     5 1
   10     4    23 1
   11     5     6 1
   12     6     7 1
   13     6    24 1
   14     7     8 1
   15     7     9 1
   16     8    25 1
   17     9    10 1
   18     9    26 1
   19    10    11 1
   20    10    12 1
   21    12    13 1
   22    12    27 1
   23    12    28 1
   24    13    14 1
   25    13    18 1
   26    13    29 1
   27    14    15 1
   28    14    30 1
   29    14    31 1
   30    15    16 1
   31    15    32 1
   32    15    33 1
   33    16    17 1
   34    16    34 1
   35    16    35 1
   36    17    18 1
   37    17    36 1
   38    17    37 1
   39    18    38 1
   40    18    39 1
@<TRIPOS>SUBSTRUCTURE
      1  S38              1 ****               0 ****  **** 
