@<TRIPOS>MOLECULE
S27
   35    36     1     0     1 
SMALL
USER_CHARGES
@<TRIPOS>ATOM
  1 O1      2.642000    2.752000    1.963000 o     1 S27    -0.6001 ****
  2 C1      2.247000    1.807000    1.286000 c     1 S27     0.7681 ****
  3 N1      0.936000    1.370000    1.240000 ns    1 S27    -0.4611 ****
  4 C2     -0.133000    1.969000    1.955000 ca    1 S27     0.0576 ****
  5 C3     -0.058000    3.258000    2.496000 ca    1 S27    -0.1550 ****
  6 C4     -1.107000    3.789000    3.250000 ca    1 S27    -0.1085 ****
  7 C5     -2.258000    3.042000    3.457000 ca    1 S27    -0.1490 ****
  8 C6     -2.363000    1.769000    2.898000 ca    1 S27    -0.1085 ****
  9 C7     -1.309000    1.236000    2.143000 ca    1 S27    -0.1550 ****
 10 N2      3.094000    1.056000    0.497000 ns    1 S27    -0.4591 ****
 11 C8      4.510000    1.203000    0.493000 ca    1 S27    -0.0197 ****
 12 C9      5.228000    1.827000    1.511000 ca    1 S27     0.3502 ****
 13 N3      6.571000    1.936000    1.536000 nb    1 S27    -0.6210 ****
 14 C10     7.236000    1.407000    0.483000 ca    1 S27     0.3212 ****
 15 C11     6.657000    0.765000   -0.619000 ca    1 S27     0.0693 ****
 16 C12     5.255000    0.674000   -0.574000 ca    1 S27    -0.2140 ****
 17 N4      7.404000    0.273000   -1.676000 nh    1 S27    -0.6480 ****
 18 C13     8.713000    0.825000   -2.022000 c3    1 S27     0.1831 ****
 19 C14     6.977000   -0.870000   -2.471000 c3    1 S27     0.1831 ****
 20 H1      0.774000    0.446000    0.869000 hn    1 S27     0.3055 ****
 21 H2      0.812000    3.890000    2.353000 ha    1 S27     0.1485 ****
 22 H3     -1.005000    4.784000    3.676000 ha    1 S27     0.1340 ****
 23 H4     -3.068000    3.453000    4.053000 ha    1 S27     0.1340 ****
 24 H5     -3.265000    1.186000    3.064000 ha    1 S27     0.1340 ****
 25 H6     -1.417000    0.233000    1.740000 ha    1 S27     0.1485 ****
 26 H7      2.684000    0.508000   -0.245000 hn    1 S27     0.3065 ****
 27 H8      4.752000    2.254000    2.390000 h4    1 S27     0.0601 ****
 28 H9      8.314000    1.496000    0.582000 h4    1 S27     0.0241 ****
 29 H10     4.722000    0.233000   -1.409000 ha    1 S27     0.1340 ****
 30 H11     9.002000    1.702000   -1.435000 h1    1 S27     0.0397 ****
 31 H12     8.706000    1.144000   -3.070000 h1    1 S27     0.0397 ****
 32 H13     9.492000    0.063000   -1.905000 h1    1 S27     0.0397 ****
 33 H14     6.032000   -1.312000   -2.147000 h1    1 S27     0.0397 ****
 34 H15     7.731000   -1.665000   -2.408000 h1    1 S27     0.0397 ****
 35 H16     6.880000   -0.579000   -3.522000 h1    1 S27     0.0397 ****
@<TRIPOS>BOND
    1     1     2 1
    2     2     3 1
    3     2    10 1
    4     3     4 1
    5     3    20 1
    6     4     5 1
    7     4     9 1
    8     5     6 1
    9     5    21 1
   10     6     7 1
   11     6    22 1
   12     7     8 1
   13     7    23 1
   14     8     9 1
   15     8    24 1
   16     9    25 1
   17    10    11 1
   18    10    26 1
   19    11    12 1
   20    11    16 1
   21    12    13 1
   22    12    27 1
   23    13    14 1
   24    14    15 1
   25    14    28 1
   26    15    16 1
   27    15    17 1
   28    16    29 1
   29    17    18 1
   30    17    19 1
   31    18    30 1
   32    18    31 1
   33    18    32 1
   34    19    33 1
   35    19    34 1
   36    19    35 1
@<TRIPOS>SUBSTRUCTURE
      1  S27              1 ****               0 ****  **** 
