@<TRIPOS>MOLECULE
S43
   37    39     1     0     1 
SMALL
USER_CHARGES
@<TRIPOS>ATOM
  1 O1      0.904000    0.410000    0.827000 o     1 S43    -0.5811 ****
  2 C1      1.979000    0.153000    0.288000 c     1 S43     0.6671 ****
  3 N1      2.368000    0.632000   -0.948000 ns    1 S43    -0.4601 ****
  4 C2      1.648000    1.414000   -1.831000 cc    1 S43    -0.0147 ****
  5 C3      0.357000    1.804000   -1.698000 cd    1 S43     0.3442 ****
  6 N2     -0.369000    2.562000   -2.611000 nd    1 S43    -0.6560 ****
  7 C4      0.251000    2.929000   -3.695000 cc    1 S43     0.5124 ****
  8 N3      1.578000    2.572000   -3.898000 na    1 S43     0.0472 ****
  9 C5      2.325000    1.830000   -3.015000 cc    1 S43    -0.0773 ****
 10 C6      3.575000    1.724000   -3.582000 cd    1 S43    -0.3366 ****
 11 C7      3.477000    2.424000   -4.803000 cd    1 S43     0.3735 ****
 12 N4      2.260000    2.943000   -5.008000 nc    1 S43    -0.5501 ****
 13 C8      2.922000   -0.862000    0.951000 c3    1 S43    -0.1524 ****
 14 C9      4.445000   -0.734000    0.746000 c3    1 S43    -0.0557 ****
 15 C10     5.058000    0.509000    1.406000 c3    1 S43    -0.0759 ****
 16 C11     5.138000    0.436000    2.931000 c3    1 S43    -0.0774 ****
 17 C12     5.711000   -0.874000    3.468000 c3    1 S43    -0.0784 ****
 18 C13     5.178000   -2.120000    2.770000 c3    1 S43    -0.0774 ****
 19 C14     5.185000   -1.987000    1.251000 c3    1 S43    -0.0759 ****
 20 H1      3.301000    0.396000   -1.255000 hn    1 S43     0.3245 ****
 21 H2     -0.227000    1.517000   -0.828000 h4    1 S43     0.0731 ****
 22 H3     -0.260000    3.528000   -4.468000 h5    1 S43     0.0731 ****
 23 H4      4.445000    1.223000   -3.185000 ha    1 S43     0.1640 ****
 24 H5      4.242000    2.579000   -5.554000 h4    1 S43     0.0558 ****
 25 H6      2.594000   -1.843000    0.583000 hc    1 S43     0.0772 ****
 26 H7      2.694000   -0.836000    2.023000 hc    1 S43     0.0772 ****
 27 H8      4.649000   -0.675000   -0.329000 hc    1 S43     0.0407 ****
 28 H9      4.509000    1.411000    1.112000 hc    1 S43     0.0455 ****
 29 H10     6.078000    0.633000    1.016000 hc    1 S43     0.0455 ****
 30 H11     4.142000    0.598000    3.357000 hc    1 S43     0.0437 ****
 31 H12     5.764000    1.262000    3.292000 hc    1 S43     0.0437 ****
 32 H13     5.499000   -0.946000    4.543000 hc    1 S43     0.0417 ****
 33 H14     6.804000   -0.854000    3.374000 hc    1 S43     0.0417 ****
 34 H15     4.164000   -2.337000    3.122000 hc    1 S43     0.0437 ****
 35 H16     5.795000   -2.981000    3.058000 hc    1 S43     0.0437 ****
 36 H17     4.753000   -2.889000    0.801000 hc    1 S43     0.0455 ****
 37 H18     6.227000   -1.941000    0.908000 hc    1 S43     0.0455 ****
@<TRIPOS>BOND
    1     1     2 1
    2     2     3 1
    3     2    13 1
    4     3     4 1
    5     3    20 1
    6     4     5 1
    7     4     9 1
    8     5     6 1
    9     5    21 1
   10     6     7 1
   11     7     8 1
   12     7    22 1
   13     8     9 1
   14     8    12 1
   15     9    10 1
   16    10    11 1
   17    10    23 1
   18    11    12 1
   19    11    24 1
   20    13    14 1
   21    13    25 1
   22    13    26 1
   23    14    15 1
   24    14    19 1
   25    14    27 1
   26    15    16 1
   27    15    28 1
   28    15    29 1
   29    16    17 1
   30    16    30 1
   31    16    31 1
   32    17    18 1
   33    17    32 1
   34    17    33 1
   35    18    19 1
   36    18    34 1
   37    18    35 1
   38    19    36 1
   39    19    37 1
@<TRIPOS>SUBSTRUCTURE
      1  S43              1 ****               0 ****  **** 
