@<TRIPOS>MOLECULE
S46
   37    39     1     0     0
SMALL
bcc


@<TRIPOS>ATOM
      1 O1           2.3430    -0.3490    -1.1230 o          1 S46      -0.580100
      2 C1           1.9750     0.2420    -0.1160 c          1 S46       0.666100
      3 N1           0.6530     0.5070     0.2300 ns         1 S46      -0.463100
      4 C2          -0.5060     0.2330    -0.5390 ca         1 S46       0.026300
      5 C3          -0.5160    -0.3410    -1.8100 ca         1 S46       0.329200
      6 N2          -1.6270    -0.5740    -2.5660 nb         1 S46      -0.617000
      7 C4          -2.8410    -0.2360    -2.0810 ca         1 S46       0.364200
      8 C5          -2.9130     0.3280    -0.8200 ca         1 S46      -0.143500
      9 C6          -1.7840     0.5650    -0.0380 ca         1 S46      -0.242900
     10 C7          -2.3160     1.1340     1.1450 cc         1 S46       0.335800
     11 N3          -3.6460     1.2540     1.1200 nd         1 S46      -0.498100
     12 N4          -3.9820     0.7600    -0.0830 na         1 S46      -0.013100
     13 C8           2.9500     0.7930     0.9310 c3         1 S46      -0.148400
     14 C9           4.4420     0.4640     0.7040 c3         1 S46      -0.058700
     15 C10          5.0840     1.1920    -0.4900 c3         1 S46      -0.077400
     16 C11          5.3230     2.6850    -0.2650 c3         1 S46      -0.077400
     17 C12          6.0130     3.0080     1.0570 c3         1 S46      -0.077400
     18 C13          5.4380     2.2500     2.2480 c3         1 S46      -0.077400
     19 C14          5.2750     0.7570     1.9670 c3         1 S46      -0.077400
     20 H1           0.4950     0.9430     1.1290 hn         1 S46       0.320500
     21 H2           0.4000    -0.6480    -2.3070 h4         1 S46       0.065100
     22 H3          -3.7000    -0.4280    -2.7130 h4         1 S46       0.029100
     23 H4          -1.7870     1.4690     2.0270 h4         1 S46       0.050800
     24 H5          -4.9650     0.7430    -0.3400 hn         1 S46       0.330700
     25 H6           2.6450     0.3530     1.8910 hc         1 S46       0.070700
     26 H7           2.7950     1.8750     0.9990 hc         1 S46       0.070700
     27 H8           4.5130    -0.6140     0.5070 hc         1 S46       0.069700
     28 H9           4.4880     1.0560    -1.3980 hc         1 S46       0.046200
     29 H10          6.0560     0.7200    -0.6930 hc         1 S46       0.046200
     30 H11          4.3690     3.2200    -0.3200 hc         1 S46       0.038200
     31 H12          5.9420     3.0720    -1.0850 hc         1 S46       0.038200
     32 H13          5.9430     4.0870     1.2460 hc         1 S46       0.042700
     33 H14          7.0830     2.7810     0.9710 hc         1 S46       0.042700
     34 H15          4.4720     2.6840     2.5300 hc         1 S46       0.038200
     35 H16          6.1020     2.3860     3.1100 hc         1 S46       0.038200
     36 H17          4.8280     0.2680     2.8410 hc         1 S46       0.046200
     37 H18          6.2730     0.3140     1.8440 hc         1 S46       0.046200
@<TRIPOS>BOND
     1     1     2 2   
     2     2     3 1   
     3     2    13 1   
     4     3     4 1   
     5     3    20 1   
     6     4     5 ar  
     7     4     9 ar  
     8     5     6 ar  
     9     5    21 1   
    10     6     7 ar  
    11     7     8 ar  
    12     7    22 1   
    13     8     9 ar  
    14     8    12 1   
    15     9    10 1   
    16    10    11 2   
    17    10    23 1   
    18    11    12 1   
    19    12    24 1   
    20    13    14 1   
    21    13    25 1   
    22    13    26 1   
    23    14    15 1   
    24    14    19 1   
    25    14    27 1   
    26    15    16 1   
    27    15    28 1   
    28    15    29 1   
    29    16    17 1   
    30    16    30 1   
    31    16    31 1   
    32    17    18 1   
    33    17    32 1   
    34    17    33 1   
    35    18    19 1   
    36    18    34 1   
    37    18    35 1   
    38    19    36 1   
    39    19    37 1   
@<TRIPOS>SUBSTRUCTURE
     1 S46         1 TEMP              0 ****  ****    0 ROOT
