@<TRIPOS>MOLECULE
S42
   38    40     1     0     0
SMALL
bcc


@<TRIPOS>ATOM
      1 O1           1.2030    -0.6050     0.6110 o          1 S42      -0.585100
      2 C1           2.1850    -0.0450     0.1230 c          1 S42       0.665100
      3 N1           2.5430     1.2680     0.3480 ns         1 S42      -0.462100
      4 C2           1.8290     2.1770     1.1700 ca         1 S42       0.003300
      5 C3           0.8040     1.8120     2.0490 ca         1 S42       0.332200
      6 N2           0.0520     2.6680     2.7910 nb         1 S42      -0.629000
      7 C4           0.2840     3.9880     2.6920 ca         1 S42       0.363200
      8 C5           1.3110     4.4350     1.8720 ca         1 S42      -0.145500
      9 C6           2.1060     3.5620     1.1210 ca         1 S42      -0.119800
     10 C7           3.0490     4.3820     0.4270 cc         1 S42      -0.197200
     11 C8           2.7930     5.6990     0.7500 cd         1 S42      -0.098100
     12 N3           1.7330     5.7180     1.6140 na         1 S42      -0.181400
     13 C9           3.0190    -0.7990    -0.8980 c3         1 S42      -0.154400
     14 C10          4.5490    -0.7360    -0.7620 c3         1 S42      -0.055700
     15 C11          5.0620    -1.1300     0.6310 c3         1 S42      -0.075400
     16 C12          4.8760    -2.6150     0.9380 c3         1 S42      -0.077400
     17 C13          5.5090    -3.4970    -0.1350 c3         1 S42      -0.077400
     18 C14          5.0370    -3.1320    -1.5390 c3         1 S42      -0.077400
     19 C15          5.2070    -1.6380    -1.8280 c3         1 S42      -0.075400
     20 H1           3.2910     1.6640    -0.2070 hn         1 S42       0.319500
     21 H2           0.5330     0.7740     2.2150 h4         1 S42       0.061100
     22 H3          -0.3560     4.6430     3.2690 h4         1 S42       0.021100
     23 H4           3.8310     4.0520    -0.2410 ha         1 S42       0.152000
     24 H5           3.2670     6.6190     0.4340 h4         1 S42       0.168000
     25 H6           1.3130     6.5510     2.0060 hn         1 S42       0.303700
     26 H7           2.7190    -0.4410    -1.8910 hc         1 S42       0.074700
     27 H8           2.6860    -1.8430    -0.8380 hc         1 S42       0.074700
     28 H9           4.8650     0.2960    -0.9580 hc         1 S42       0.040700
     29 H10          4.5790    -0.5300     1.4100 hc         1 S42       0.044700
     30 H11          6.1330    -0.8950     0.6870 hc         1 S42       0.044700
     31 H12          3.8080    -2.8470     1.0260 hc         1 S42       0.043200
     32 H13          5.3280    -2.8450     1.9090 hc         1 S42       0.043200
     33 H14          5.2790    -4.5480     0.0700 hc         1 S42       0.040700
     34 H15          6.6000    -3.3960    -0.0860 hc         1 S42       0.040700
     35 H16          3.9880    -3.4240    -1.6600 hc         1 S42       0.043200
     36 H17          5.6020    -3.7140    -2.2770 hc         1 S42       0.043200
     37 H18          4.7990    -1.4110    -2.8200 hc         1 S42       0.044700
     38 H19          6.2790    -1.4100    -1.8730 hc         1 S42       0.044700
@<TRIPOS>BOND
     1     1     2 2   
     2     2     3 1   
     3     2    13 1   
     4     3     4 1   
     5     3    20 1   
     6     4     5 ar  
     7     4     9 ar  
     8     5     6 ar  
     9     5    21 1   
    10     6     7 ar  
    11     7     8 ar  
    12     7    22 1   
    13     8     9 ar  
    14     8    12 1   
    15     9    10 1   
    16    10    11 2   
    17    10    23 1   
    18    11    12 1   
    19    11    24 1   
    20    12    25 1   
    21    13    14 1   
    22    13    26 1   
    23    13    27 1   
    24    14    15 1   
    25    14    19 1   
    26    14    28 1   
    27    15    16 1   
    28    15    29 1   
    29    15    30 1   
    30    16    17 1   
    31    16    31 1   
    32    16    32 1   
    33    17    18 1   
    34    17    33 1   
    35    17    34 1   
    36    18    19 1   
    37    18    35 1   
    38    18    36 1   
    39    19    37 1   
    40    19    38 1   
@<TRIPOS>SUBSTRUCTURE
     1 S42         1 TEMP              0 ****  ****    0 ROOT
