@<TRIPOS>MOLECULE
S36
   34    35     1     0     0
SMALL
bcc


@<TRIPOS>ATOM
      1 O1           2.3130    -0.1030    -1.1220 o          1 S36      -0.590100
      2 C1           1.9890     0.5050    -0.1130 c          1 S36       0.667100
      3 N1           0.6880     0.8230     0.2630 ns         1 S36      -0.466100
      4 C2          -0.5120     0.5980    -0.4510 ca         1 S36      -0.044700
      5 C3          -0.5940     0.0190    -1.7140 ca         1 S36      -0.124000
      6 C4          -1.8410    -0.1260    -2.3310 ca         1 S36      -0.217300
      7 C5          -2.9720     0.3100    -1.6600 ca         1 S36       0.359200
      8 N2          -2.9400     0.8690    -0.4340 nb         1 S36      -0.642000
      9 C6          -1.7160     0.9970     0.1340 ca         1 S36       0.341200
     10 C7           2.9970     1.0130     0.9220 c3         1 S36      -0.149400
     11 C8           4.4690     0.6160     0.6800 c3         1 S36      -0.058700
     12 C9           5.1250     1.3200    -0.5190 c3         1 S36      -0.077400
     13 C10          5.4320     2.8000    -0.2900 c3         1 S36      -0.077400
     14 C11          6.1650     3.0790     1.0180 c3         1 S36      -0.077400
     15 C12          5.5740     2.3470     2.2180 c3         1 S36      -0.077400
     16 C13          5.3250     0.8660     1.9380 c3         1 S36      -0.077400
     17 H1           0.5810     1.2700     1.1660 hn         1 S36       0.318500
     18 H2           0.2880    -0.3210    -2.2470 ha         1 S36       0.179000
     19 H3          -1.9250    -0.5680    -3.3170 ha         1 S36       0.145000
     20 H4          -3.9600     0.2220    -2.1050 h4         1 S36       0.023100
     21 H5          -1.7390     1.4570     1.1180 h4         1 S36       0.016100
     22 H6           2.6830     0.5910     1.8870 hc         1 S36       0.070200
     23 H7           2.8910     2.1010     0.9890 hc         1 S36       0.070200
     24 H8           4.4880    -0.4630     0.4800 hc         1 S36       0.068700
     25 H9           4.5080     1.2170    -1.4180 hc         1 S36       0.045700
     26 H10          6.0690     0.8050    -0.7410 hc         1 S36       0.045700
     27 H11          4.5010     3.3760    -0.3190 hc         1 S36       0.038450
     28 H12          6.0480     3.1660    -1.1210 hc         1 S36       0.038450
     29 H13          6.1560     4.1590     1.2130 hc         1 S36       0.042700
     30 H14          7.2190     2.7960     0.9100 hc         1 S36       0.042700
     31 H15          4.6390     2.8320     2.5210 hc         1 S36       0.038450
     32 H16          6.2620     2.4430     3.0670 hc         1 S36       0.038450
     33 H17          4.8580     0.4040     2.8150 hc         1 S36       0.045700
     34 H18          6.2950     0.3670     1.8080 hc         1 S36       0.045700
@<TRIPOS>BOND
     1     1     2 2   
     2     2     3 1   
     3     2    10 1   
     4     3     4 1   
     5     3    17 1   
     6     4     5 ar  
     7     4     9 ar  
     8     5     6 ar  
     9     5    18 1   
    10     6     7 ar  
    11     6    19 1   
    12     7     8 ar  
    13     7    20 1   
    14     8     9 ar  
    15     9    21 1   
    16    10    11 1   
    17    10    22 1   
    18    10    23 1   
    19    11    12 1   
    20    11    16 1   
    21    11    24 1   
    22    12    13 1   
    23    12    25 1   
    24    12    26 1   
    25    13    14 1   
    26    13    27 1   
    27    13    28 1   
    28    14    15 1   
    29    14    29 1   
    30    14    30 1   
    31    15    16 1   
    32    15    31 1   
    33    15    32 1   
    34    16    33 1   
    35    16    34 1   
@<TRIPOS>SUBSTRUCTURE
     1 S36         1 TEMP              0 ****  ****    0 ROOT
