@<TRIPOS>MOLECULE
S41
   39    41     1     0     1 
SMALL
USER_CHARGES
@<TRIPOS>ATOM
  1 O1      1.431000   -0.264000    0.874000 o     1 S41    -0.5801 ****
  2 C1      2.134000    0.095000   -0.067000 c     1 S41     0.6661 ****
  3 N1      2.249000    1.395000   -0.531000 ns    1 S41    -0.4701 ****
  4 C2      1.653000    2.537000    0.092000 ca    1 S41    -0.0277 ****
  5 C3      1.167000    2.481000    1.403000 ca    1 S41     0.3562 ****
  6 N2      0.601000    3.514000    2.061000 nb    1 S41    -0.6350 ****
  7 C4      0.513000    4.674000    1.377000 ca    1 S41     0.3459 ****
  8 C5      0.957000    4.889000    0.088000 ca    1 S41     0.2923 ****
  9 C6      1.547000    3.795000   -0.588000 ca    1 S41    -0.1523 ****
 10 C7      1.966000    4.060000   -1.914000 ca    1 S41    -0.0910 ****
 11 C8      1.801000    5.324000   -2.482000 ca    1 S41    -0.2363 ****
 12 C9      1.220000    6.313000   -1.717000 ca    1 S41     0.4092 ****
 13 N3      0.800000    6.115000   -0.457000 nb    1 S41    -0.6390 ****
 14 C10     2.912000   -0.952000   -0.842000 c3    1 S41    -0.1544 ****
 15 C11     4.444000   -0.862000   -0.724000 c3    1 S41    -0.0557 ****
 16 C12     4.958000   -0.885000    0.728000 c3    1 S41    -0.0754 ****
 17 C13     4.766000   -2.237000    1.411000 c3    1 S41    -0.0774 ****
 18 C14     5.397000   -3.370000    0.606000 c3    1 S41    -0.0784 ****
 19 C15     4.923000   -3.380000   -0.844000 c3    1 S41    -0.0774 ****
 20 C16     5.099000   -2.014000   -1.514000 c3    1 S41    -0.0754 ****
 21 H1      2.697000    1.528000   -1.428000 hn    1 S41     0.3165 ****
 22 H2      1.234000    1.589000    2.015000 h4    1 S41     0.0641 ****
 23 H3      0.043000    5.486000    1.926000 h4    1 S41     0.0421 ****
 24 H4      2.414000    3.286000   -2.532000 ha    1 S41     0.1300 ****
 25 H5      2.113000    5.533000   -3.501000 ha    1 S41     0.1470 ****
 26 H6      1.068000    7.316000   -2.105000 h4    1 S41     0.0281 ****
 27 H7      2.608000   -0.895000   -1.893000 hc    1 S41     0.0752 ****
 28 H8      2.559000   -1.925000   -0.479000 hc    1 S41     0.0752 ****
 29 H9      4.762000    0.086000   -1.175000 hc    1 S41     0.0397 ****
 30 H10     4.482000   -0.098000    1.323000 hc    1 S41     0.0449 ****
 31 H11     6.032000   -0.652000    0.720000 hc    1 S41     0.0449 ****
 32 H12     3.697000   -2.436000    1.554000 hc    1 S41     0.0439 ****
 33 H13     5.216000   -2.209000    2.411000 hc    1 S41     0.0439 ****
 34 H14     5.164000   -4.332000    1.078000 hc    1 S41     0.0417 ****
 35 H15     6.489000   -3.264000    0.627000 hc    1 S41     0.0417 ****
 36 H16     3.870000   -3.685000   -0.881000 hc    1 S41     0.0439 ****
 37 H17     5.481000   -4.138000   -1.405000 hc    1 S41     0.0439 ****
 38 H18     4.693000   -2.053000   -2.531000 hc    1 S41     0.0449 ****
 39 H19     6.173000   -1.810000   -1.615000 hc    1 S41     0.0449 ****
@<TRIPOS>BOND
    1     1     2 1
    2     2     3 1
    3     2    14 1
    4     3     4 1
    5     3    21 1
    6     4     5 1
    7     4     9 1
    8     5     6 1
    9     5    22 1
   10     6     7 1
   11     7     8 1
   12     7    23 1
   13     8     9 1
   14     8    13 1
   15     9    10 1
   16    10    11 1
   17    10    24 1
   18    11    12 1
   19    11    25 1
   20    12    13 1
   21    12    26 1
   22    14    15 1
   23    14    27 1
   24    14    28 1
   25    15    16 1
   26    15    20 1
   27    15    29 1
   28    16    17 1
   29    16    30 1
   30    16    31 1
   31    17    18 1
   32    17    32 1
   33    17    33 1
   34    18    19 1
   35    18    34 1
   36    18    35 1
   37    19    20 1
   38    19    36 1
   39    19    37 1
   40    20    38 1
   41    20    39 1
@<TRIPOS>SUBSTRUCTURE
      1  S41              1 ****               0 ****  **** 
