@<TRIPOS>MOLECULE
S45
   37    39     1     0     1 
SMALL
USER_CHARGES
@<TRIPOS>ATOM
  1 O1      1.084000   -0.367000   -0.453000 o     1 S45    -0.5871 ****
  2 C1      2.177000   -0.102000    0.057000 c     1 S45     0.6651 ****
  3 N1      2.653000   -0.680000    1.208000 ns    1 S45    -0.4571 ****
  4 C2      1.961000   -1.671000    1.943000 ca    1 S45     0.0233 ****
  5 C3      0.878000   -2.423000    1.483000 ca    1 S45     0.3352 ****
  6 N2      0.172000   -3.326000    2.215000 nb    1 S45    -0.6260 ****
  7 C4      0.507000   -3.531000    3.504000 ca    1 S45     0.3682 ****
  8 C5      1.585000   -2.840000    4.024000 ca    1 S45    -0.1685 ****
  9 C6      2.326000   -1.933000    3.272000 ca    1 S45     0.0324 ****
 10 N3      3.338000   -1.385000    4.040000 nc    1 S45    -0.5791 ****
 11 C7      3.200000   -1.926000    5.230000 cd    1 S45     0.4257 ****
 12 N4      2.154000   -2.807000    5.270000 na    1 S45    -0.2773 ****
 13 C8      2.994000    1.017000   -0.553000 c3    1 S45    -0.1524 ****
 14 C9      4.522000    0.884000   -0.584000 c3    1 S45    -0.0567 ****
 15 C10     5.008000   -0.370000   -1.329000 c3    1 S45    -0.0754 ****
 16 C11     4.786000   -0.301000   -2.839000 c3    1 S45    -0.0774 ****
 17 C12     5.370000    0.971000   -3.449000 c3    1 S45    -0.0774 ****
 18 C13     4.882000    2.227000   -2.734000 c3    1 S45    -0.0774 ****
 19 C14     5.139000    2.143000   -1.228000 c3    1 S45    -0.0754 ****
 20 H1      3.457000   -0.281000    1.684000 hn    1 S45     0.3365 ****
 21 H2      0.520000   -2.338000    0.459000 h4    1 S45     0.0651 ****
 22 H3     -0.103000   -4.228000    4.069000 h4    1 S45     0.0251 ****
 23 H4      3.811000   -1.718000    6.098000 h5    1 S45     0.0718 ****
 24 H5      1.844000   -3.325000    6.079000 hn    1 S45     0.3107 ****
 25 H6      2.711000    1.940000   -0.032000 hc    1 S45     0.0752 ****
 26 H7      2.621000    1.115000   -1.579000 hc    1 S45     0.0752 ****
 27 H8      4.887000    0.827000    0.450000 hc    1 S45     0.0457 ****
 28 H9      4.527000   -1.270000   -0.929000 hc    1 S45     0.0449 ****
 29 H10     6.084000   -0.491000   -1.142000 hc    1 S45     0.0449 ****
 30 H11     3.714000   -0.357000   -3.061000 hc    1 S45     0.0427 ****
 31 H12     5.248000   -1.175000   -3.314000 hc    1 S45     0.0427 ****
 32 H13     5.106000    1.025000   -4.511000 hc    1 S45     0.0407 ****
 33 H14     6.464000    0.929000   -3.394000 hc    1 S45     0.0407 ****
 34 H15     3.813000    2.371000   -2.930000 hc    1 S45     0.0427 ****
 35 H16     5.390000    3.106000   -3.146000 hc    1 S45     0.0427 ****
 36 H17     4.752000    3.047000   -0.741000 hc    1 S45     0.0449 ****
 37 H18     6.224000    2.139000   -1.056000 hc    1 S45     0.0449 ****
@<TRIPOS>BOND
    1     1     2 1
    2     2     3 1
    3     2    13 1
    4     3     4 1
    5     3    20 1
    6     4     5 1
    7     4     9 1
    8     5     6 1
    9     5    21 1
   10     6     7 1
   11     7     8 1
   12     7    22 1
   13     8     9 1
   14     8    12 1
   15     9    10 1
   16    10    11 1
   17    11    12 1
   18    11    23 1
   19    12    24 1
   20    13    14 1
   21    13    25 1
   22    13    26 1
   23    14    15 1
   24    14    19 1
   25    14    27 1
   26    15    16 1
   27    15    28 1
   28    15    29 1
   29    16    17 1
   30    16    30 1
   31    16    31 1
   32    17    18 1
   33    17    32 1
   34    17    33 1
   35    18    19 1
   36    18    34 1
   37    18    35 1
   38    19    36 1
   39    19    37 1
@<TRIPOS>SUBSTRUCTURE
      1  S45              1 ****               0 ****  **** 
