@<TRIPOS>MOLECULE
S32
   30    32     1     0     0
SMALL
bcc


@<TRIPOS>ATOM
      1 O1           1.0910     0.2280    -0.2310 o          1 S32      -0.589100
      2 C1           2.2770     0.0330    -0.0040 c          1 S32       0.762100
      3 N1           2.9120    -1.1860    -0.1990 ns         1 S32      -0.460100
      4 C2           2.3120    -2.3460    -0.6730 cc         1 S32      -0.022000
      5 C3           1.1780    -2.3810    -1.4150 cd         1 S32       0.374200
      6 N2           0.5460    -3.5340    -1.8660 nd         1 S32      -0.638000
      7 C4           1.0740    -4.6810    -1.5390 cc         1 S32       0.449200
      8 C5           2.2790    -4.7560    -0.7670 cc         1 S32      -0.145600
      9 N3           2.8800    -3.5900    -0.3630 na         1 S32       0.002700
     10 C6           3.9900    -3.9630     0.3560 cc         1 S32      -0.234100
     11 C7           3.9780    -5.3430     0.3560 cd         1 S32       0.017600
     12 N4           2.9120    -5.8320    -0.3540 nd         1 S32      -0.261600
     13 N5           3.1480     0.9720     0.5230 ns         1 S32      -0.452100
     14 C8           2.7610     2.2130     1.0800 ca         1 S32       0.048600
     15 C9           1.4610     2.4730     1.5250 ca         1 S32      -0.151500
     16 C10          1.1320     3.7130     2.0770 ca         1 S32      -0.108500
     17 C11          2.1020     4.7030     2.1940 ca         1 S32      -0.144000
     18 C12          3.4050     4.4490     1.7690 ca         1 S32      -0.108500
     19 C13          3.7360     3.2060     1.2220 ca         1 S32      -0.151500
     20 H1           3.7800    -1.2920     0.3060 hn         1 S32       0.311500
     21 H2           0.6730    -1.4680    -1.7200 h4         1 S32       0.065100
     22 H3           0.5890    -5.6160    -1.8620 h4         1 S32       0.055100
     23 H4           4.6670    -3.2560     0.8080 h4         1 S32       0.179000
     24 H5           4.6840    -6.0100     0.8350 h4         1 S32       0.186000
     25 H6           4.1230     0.8680     0.2850 hn         1 S32       0.308500
     26 H7           0.6790     1.7210     1.4680 ha         1 S32       0.149000
     27 H8           0.1140     3.8980     2.4140 ha         1 S32       0.136500
     28 H9           1.8410     5.6700     2.6180 ha         1 S32       0.136000
     29 H10          4.1610     5.2250     1.8580 ha         1 S32       0.136500
     30 H11          4.7570     3.0380     0.8940 ha         1 S32       0.149000
@<TRIPOS>BOND
     1     1     2 2   
     2     2     3 1   
     3     2    13 1   
     4     3     4 1   
     5     3    20 1   
     6     4     5 2   
     7     4     9 1   
     8     5     6 1   
     9     5    21 1   
    10     6     7 2   
    11     7     8 1   
    12     7    22 1   
    13     8     9 1   
    14     8    12 2   
    15     9    10 1   
    16    10    11 2   
    17    10    23 1   
    18    11    12 1   
    19    11    24 1   
    20    13    14 1   
    21    13    25 1   
    22    14    15 ar  
    23    14    19 ar  
    24    15    16 ar  
    25    15    26 1   
    26    16    17 ar  
    27    16    27 1   
    28    17    18 ar  
    29    17    28 1   
    30    18    19 ar  
    31    18    29 1   
    32    19    30 1   
@<TRIPOS>SUBSTRUCTURE
     1 S32         1 TEMP              0 ****  ****    0 ROOT
