@<TRIPOS>MOLECULE
S36
   34    35     1     0     1 
SMALL
USER_CHARGES
@<TRIPOS>ATOM
  1 O1      2.313000   -0.103000   -1.122000 o     1 S36    -0.5901 ****
  2 C1      1.989000    0.505000   -0.113000 c     1 S36     0.6671 ****
  3 N1      0.688000    0.823000    0.263000 ns    1 S36    -0.4661 ****
  4 C2     -0.512000    0.598000   -0.451000 ca    1 S36    -0.0447 ****
  5 C3     -0.594000    0.019000   -1.714000 ca    1 S36    -0.1240 ****
  6 C4     -1.841000   -0.126000   -2.331000 ca    1 S36    -0.2173 ****
  7 C5     -2.972000    0.310000   -1.660000 ca    1 S36     0.3592 ****
  8 N2     -2.940000    0.869000   -0.434000 nb    1 S36    -0.6420 ****
  9 C6     -1.716000    0.997000    0.134000 ca    1 S36     0.3412 ****
 10 C7      2.997000    1.013000    0.922000 c3    1 S36    -0.1494 ****
 11 C8      4.469000    0.616000    0.680000 c3    1 S36    -0.0587 ****
 12 C9      5.125000    1.320000   -0.519000 c3    1 S36    -0.0774 ****
 13 C10     5.432000    2.800000   -0.290000 c3    1 S36    -0.0774 ****
 14 C11     6.165000    3.079000    1.018000 c3    1 S36    -0.0774 ****
 15 C12     5.574000    2.347000    2.218000 c3    1 S36    -0.0774 ****
 16 C13     5.325000    0.866000    1.938000 c3    1 S36    -0.0774 ****
 17 H1      0.581000    1.270000    1.166000 hn    1 S36     0.3185 ****
 18 H2      0.288000   -0.321000   -2.247000 ha    1 S36     0.1790 ****
 19 H3     -1.925000   -0.568000   -3.317000 ha    1 S36     0.1450 ****
 20 H4     -3.960000    0.222000   -2.105000 h4    1 S36     0.0231 ****
 21 H5     -1.739000    1.457000    1.118000 h4    1 S36     0.0161 ****
 22 H6      2.683000    0.591000    1.887000 hc    1 S36     0.0702 ****
 23 H7      2.891000    2.101000    0.989000 hc    1 S36     0.0702 ****
 24 H8      4.488000   -0.463000    0.480000 hc    1 S36     0.0687 ****
 25 H9      4.508000    1.217000   -1.418000 hc    1 S36     0.0457 ****
 26 H10     6.069000    0.805000   -0.741000 hc    1 S36     0.0457 ****
 27 H11     4.501000    3.376000   -0.319000 hc    1 S36     0.0384 ****
 28 H12     6.048000    3.166000   -1.121000 hc    1 S36     0.0384 ****
 29 H13     6.156000    4.159000    1.213000 hc    1 S36     0.0427 ****
 30 H14     7.219000    2.796000    0.910000 hc    1 S36     0.0427 ****
 31 H15     4.639000    2.832000    2.521000 hc    1 S36     0.0384 ****
 32 H16     6.262000    2.443000    3.067000 hc    1 S36     0.0384 ****
 33 H17     4.858000    0.404000    2.815000 hc    1 S36     0.0457 ****
 34 H18     6.295000    0.367000    1.808000 hc    1 S36     0.0457 ****
@<TRIPOS>BOND
    1     1     2 1
    2     2     3 1
    3     2    10 1
    4     3     4 1
    5     3    17 1
    6     4     5 1
    7     4     9 1
    8     5     6 1
    9     5    18 1
   10     6     7 1
   11     6    19 1
   12     7     8 1
   13     7    20 1
   14     8     9 1
   15     9    21 1
   16    10    11 1
   17    10    22 1
   18    10    23 1
   19    11    12 1
   20    11    16 1
   21    11    24 1
   22    12    13 1
   23    12    25 1
   24    12    26 1
   25    13    14 1
   26    13    27 1
   27    13    28 1
   28    14    15 1
   29    14    29 1
   30    14    30 1
   31    15    16 1
   32    15    31 1
   33    15    32 1
   34    16    33 1
   35    16    34 1
@<TRIPOS>SUBSTRUCTURE
      1  S36              1 ****               0 ****  **** 
