@<TRIPOS>MOLECULE
S29
   32    34     1     0     0
SMALL
bcc


@<TRIPOS>ATOM
      1 O1           0.9600     0.1500    -0.0440 o          1 S29      -0.599100
      2 C1           2.1630     0.1380     0.1840 c          1 S29       0.766100
      3 N1           2.7790    -0.7910     1.0090 ns         1 S29      -0.463100
      4 C2           2.1030    -1.8810     1.6440 ca         1 S29      -0.039700
      5 C3           0.8410    -2.3110     1.2240 ca         1 S29       0.385200
      6 N2           0.1420    -3.3200     1.7850 nb         1 S29      -0.639000
      7 C4           0.7380    -3.9470     2.8200 ca         1 S29       0.356900
      8 C5           1.9890    -3.6550     3.3300 ca         1 S29       0.287300
      9 C6           2.7020    -2.5880     2.7310 ca         1 S29      -0.146300
     10 C7           3.9690    -2.3120     3.2990 ca         1 S29      -0.095000
     11 C8           4.4590    -3.0680     4.3630 ca         1 S29      -0.232300
     12 C9           3.6750    -4.0900     4.8510 ca         1 S29       0.408200
     13 N3           2.4590    -4.3890     4.3590 nb         1 S29      -0.637000
     14 N4           3.0560     1.0610    -0.3360 ns         1 S29      -0.458100
     15 C10          2.6700     2.2360    -1.0340 ca         1 S29       0.054600
     16 C11          1.3840     2.7820    -0.9400 ca         1 S29      -0.154000
     17 C12          1.0380     3.9410    -1.6370 ca         1 S29      -0.108500
     18 C13          1.9830     4.5800    -2.4320 ca         1 S29      -0.147000
     19 C14          3.2720     4.0560    -2.5260 ca         1 S29      -0.108500
     20 C15          3.6170     2.8920    -1.8270 ca         1 S29      -0.154000
     21 H1           3.6920    -0.5380     1.3490 hn         1 S29       0.309500
     22 H2           0.3180    -1.8700     0.3820 h4         1 S29       0.059100
     23 H3           0.1500    -4.7480     3.2600 h4         1 S29       0.043100
     24 H4           4.5930    -1.5050     2.9300 ha         1 S29       0.130000
     25 H5           5.4290    -2.8620     4.8020 ha         1 S29       0.148000
     26 H6           4.0060    -4.7160     5.6750 h4         1 S29       0.028100
     27 H7           4.0150     0.7640    -0.4420 hn         1 S29       0.306500
     28 H8           0.6170     2.3330    -0.3160 ha         1 S29       0.148000
     29 H9           0.0290     4.3360    -1.5520 ha         1 S29       0.135000
     30 H10          1.7130     5.4830    -2.9720 ha         1 S29       0.135000
     31 H11          4.0080     4.5560    -3.1500 ha         1 S29       0.135000
     32 H12          4.6270     2.5050    -1.9320 ha         1 S29       0.148000
@<TRIPOS>BOND
     1     1     2 2   
     2     2     3 1   
     3     2    14 1   
     4     3     4 1   
     5     3    21 1   
     6     4     5 ar  
     7     4     9 ar  
     8     5     6 ar  
     9     5    22 1   
    10     6     7 ar  
    11     7     8 ar  
    12     7    23 1   
    13     8     9 ar  
    14     8    13 ar  
    15     9    10 ar  
    16    10    11 ar  
    17    10    24 1   
    18    11    12 ar  
    19    11    25 1   
    20    12    13 ar  
    21    12    26 1   
    22    14    15 1   
    23    14    27 1   
    24    15    16 ar  
    25    15    20 ar  
    26    16    17 ar  
    27    16    28 1   
    28    17    18 ar  
    29    17    29 1   
    30    18    19 ar  
    31    18    30 1   
    32    19    20 ar  
    33    19    31 1   
    34    20    32 1   
@<TRIPOS>SUBSTRUCTURE
     1 S29         1 TEMP              0 ****  ****    0 ROOT
