@<TRIPOS>MOLECULE
S24
   27    28     1     0     0
SMALL
bcc


@<TRIPOS>ATOM
      1 O1           1.1150    -0.0220    -0.3280 o          1 S24      -0.607100
      2 C1           2.3000     0.0590    -0.0210 c          1 S24       0.769100
      3 N1           2.9110    -0.7220     0.9470 ns         1 S24      -0.459100
      4 C2           2.2640    -1.7060     1.7380 ca         1 S24      -0.052700
      5 C3           0.9910    -2.2110     1.4720 ca         1 S24      -0.104000
      6 C4           0.4100    -3.1350     2.3380 ca         1 S24      -0.222300
      7 C5           1.1300    -3.5430     3.4470 ca         1 S24       0.367200
      8 N2           2.3760    -3.1070     3.7280 nb         1 S24      -0.644000
      9 C6           2.9100    -2.2050     2.8670 ca         1 S24       0.348200
     10 N3           3.1880     0.9590    -0.5900 ns         1 S24      -0.460100
     11 C7           2.8160     2.0150    -1.4560 ca         1 S24       0.056600
     12 C8           1.5180     2.5370    -1.4990 ca         1 S24      -0.155000
     13 C9           1.1960     3.5870    -2.3600 ca         1 S24      -0.108500
     14 C10          2.1710     4.1330    -3.1870 ca         1 S24      -0.148000
     15 C11          3.4700     3.6290    -3.1480 ca         1 S24      -0.108500
     16 C12          3.7960     2.5810    -2.2790 ca         1 S24      -0.155000
     17 H1           3.8270    -0.4290     1.2470 hn         1 S24       0.309500
     18 H2           0.4190    -1.9090     0.5990 ha         1 S24       0.176000
     19 H3          -0.5870    -3.5180     2.1480 ha         1 S24       0.147000
     20 H4           0.7090    -4.2490     4.1550 h4         1 S24       0.024100
     21 H5           3.9070    -1.8730     3.1410 h4         1 S24       0.017100
     22 H6           4.1670     0.7140    -0.5670 hn         1 S24       0.307500
     23 H7           0.7320     2.1530    -0.8560 ha         1 S24       0.148000
     24 H8           0.1800     3.9740    -2.3770 ha         1 S24       0.134500
     25 H9           1.9170     4.9480    -3.8590 ha         1 S24       0.134000
     26 H10          4.2300     4.0510    -3.8000 ha         1 S24       0.134500
     27 H11          4.8140     2.2030    -2.2780 ha         1 S24       0.148000
@<TRIPOS>BOND
     1     1     2 2   
     2     2     3 1   
     3     2    10 1   
     4     3     4 1   
     5     3    17 1   
     6     4     5 ar  
     7     4     9 ar  
     8     5     6 ar  
     9     5    18 1   
    10     6     7 ar  
    11     6    19 1   
    12     7     8 ar  
    13     7    20 1   
    14     8     9 ar  
    15     9    21 1   
    16    10    11 1   
    17    10    22 1   
    18    11    12 ar  
    19    11    16 ar  
    20    12    13 ar  
    21    12    23 1   
    22    13    14 ar  
    23    13    24 1   
    24    14    15 ar  
    25    14    25 1   
    26    15    16 ar  
    27    15    26 1   
    28    16    27 1   
@<TRIPOS>SUBSTRUCTURE
     1 S24         1 TEMP              0 ****  ****    0 ROOT
