@<TRIPOS>MOLECULE
S33
   30    32     1     0     0
SMALL
bcc


@<TRIPOS>ATOM
      1 O1           0.9860     0.2150     0.3430 o          1 S33      -0.608100
      2 C1           2.1660     0.1200     0.0250 c          1 S33       0.772100
      3 N1           2.7880     0.9700    -0.8670 ns         1 S33      -0.452100
      4 C2           2.1330     2.0050    -1.5720 ca         1 S33       0.017300
      5 C3           0.8840     2.5470    -1.2730 ca         1 S33       0.352200
      6 N2           0.2400     3.4960    -2.0080 nb         1 S33      -0.629000
      7 C4           0.8210     3.9700    -3.1310 ca         1 S33       0.376200
      8 C5           2.0760     3.4990    -3.4700 ca         1 S33      -0.172500
      9 C6           2.7460     2.5460    -2.7120 ca         1 S33       0.037400
     10 N3           3.9740     2.2520    -3.2750 nc         1 S33      -0.582100
     11 C7           4.0450     3.0050    -4.3510 cd         1 S33       0.429700
     12 N4           2.9200     3.7640    -4.5160 na         1 S33      -0.276300
     13 N5           3.0270    -0.8510     0.5030 ns         1 S33      -0.462100
     14 C8           2.6270    -1.9830     1.2500 ca         1 S33       0.060600
     15 C9           1.3170    -2.4730     1.2320 ca         1 S33      -0.157000
     16 C10          0.9640    -3.5950     1.9840 ca         1 S33      -0.108500
     17 C11          1.9200    -4.2440     2.7570 ca         1 S33      -0.150000
     18 C12          3.2340    -3.7760     2.7690 ca         1 S33      -0.108500
     19 C13          3.5900    -2.6550     2.0100 ca         1 S33      -0.157000
     20 H1           3.6750     0.6860    -1.2670 hn         1 S33       0.329500
     21 H2           0.3230     2.2390    -0.3960 h4         1 S33       0.065100
     22 H3           0.2640     4.6990    -3.7060 h4         1 S33       0.026100
     23 H4           4.8730     3.0400    -5.0470 h5         1 S33       0.072800
     24 H5           2.7400     4.4010    -5.2790 hn         1 S33       0.311700
     25 H6           4.0090    -0.6190     0.5060 hn         1 S33       0.310500
     26 H7           0.5440    -2.0070     0.6260 ha         1 S33       0.149000
     27 H8          -0.0620    -3.9550     1.9600 ha         1 S33       0.134000
     28 H9           1.6410    -5.1120     3.3480 ha         1 S33       0.133000
     29 H10          3.9790    -4.2800     3.3780 ha         1 S33       0.134000
     30 H11          4.6170    -2.3060     2.0460 ha         1 S33       0.149000
@<TRIPOS>BOND
     1     1     2 2   
     2     2     3 1   
     3     2    13 1   
     4     3     4 1   
     5     3    20 1   
     6     4     5 ar  
     7     4     9 ar  
     8     5     6 ar  
     9     5    21 1   
    10     6     7 ar  
    11     7     8 ar  
    12     7    22 1   
    13     8     9 ar  
    14     8    12 1   
    15     9    10 1   
    16    10    11 2   
    17    11    12 1   
    18    11    23 1   
    19    12    24 1   
    20    13    14 1   
    21    13    25 1   
    22    14    15 ar  
    23    14    19 ar  
    24    15    16 ar  
    25    15    26 1   
    26    16    17 ar  
    27    16    27 1   
    28    17    18 ar  
    29    17    28 1   
    30    18    19 ar  
    31    18    29 1   
    32    19    30 1   
@<TRIPOS>SUBSTRUCTURE
     1 S33         1 TEMP              0 ****  ****    0 ROOT
