@<TRIPOS>MOLECULE
S43
   37    39     1     0     0
SMALL
bcc


@<TRIPOS>ATOM
      1 O1           0.9040     0.4100     0.8270 o          1 S43      -0.581100
      2 C1           1.9790     0.1530     0.2880 c          1 S43       0.667100
      3 N1           2.3680     0.6320    -0.9480 ns         1 S43      -0.460100
      4 C2           1.6480     1.4140    -1.8310 cc         1 S43      -0.014700
      5 C3           0.3570     1.8040    -1.6980 cd         1 S43       0.344200
      6 N2          -0.3690     2.5620    -2.6110 nd         1 S43      -0.656000
      7 C4           0.2510     2.9290    -3.6950 cc         1 S43       0.512400
      8 N3           1.5780     2.5720    -3.8980 na         1 S43       0.047200
      9 C5           2.3250     1.8300    -3.0150 cc         1 S43      -0.077300
     10 C6           3.5750     1.7240    -3.5820 cd         1 S43      -0.336600
     11 C7           3.4770     2.4240    -4.8030 cd         1 S43       0.373500
     12 N4           2.2600     2.9430    -5.0080 nc         1 S43      -0.550100
     13 C8           2.9220    -0.8620     0.9510 c3         1 S43      -0.152400
     14 C9           4.4450    -0.7340     0.7460 c3         1 S43      -0.055700
     15 C10          5.0580     0.5090     1.4060 c3         1 S43      -0.075900
     16 C11          5.1380     0.4360     2.9310 c3         1 S43      -0.077400
     17 C12          5.7110    -0.8740     3.4680 c3         1 S43      -0.078400
     18 C13          5.1780    -2.1200     2.7700 c3         1 S43      -0.077400
     19 C14          5.1850    -1.9870     1.2510 c3         1 S43      -0.075900
     20 H1           3.3010     0.3960    -1.2550 hn         1 S43       0.324500
     21 H2          -0.2270     1.5170    -0.8280 h4         1 S43       0.073100
     22 H3          -0.2600     3.5280    -4.4680 h5         1 S43       0.073100
     23 H4           4.4450     1.2230    -3.1850 ha         1 S43       0.164000
     24 H5           4.2420     2.5790    -5.5540 h4         1 S43       0.055800
     25 H6           2.5940    -1.8430     0.5830 hc         1 S43       0.077200
     26 H7           2.6940    -0.8360     2.0230 hc         1 S43       0.077200
     27 H8           4.6490    -0.6750    -0.3290 hc         1 S43       0.040700
     28 H9           4.5090     1.4110     1.1120 hc         1 S43       0.045450
     29 H10          6.0780     0.6330     1.0160 hc         1 S43       0.045450
     30 H11          4.1420     0.5980     3.3570 hc         1 S43       0.043700
     31 H12          5.7640     1.2620     3.2920 hc         1 S43       0.043700
     32 H13          5.4990    -0.9460     4.5430 hc         1 S43       0.041700
     33 H14          6.8040    -0.8540     3.3740 hc         1 S43       0.041700
     34 H15          4.1640    -2.3370     3.1220 hc         1 S43       0.043700
     35 H16          5.7950    -2.9810     3.0580 hc         1 S43       0.043700
     36 H17          4.7530    -2.8890     0.8010 hc         1 S43       0.045450
     37 H18          6.2270    -1.9410     0.9080 hc         1 S43       0.045450
@<TRIPOS>BOND
     1     1     2 2   
     2     2     3 1   
     3     2    13 1   
     4     3     4 1   
     5     3    20 1   
     6     4     5 2   
     7     4     9 1   
     8     5     6 1   
     9     5    21 1   
    10     6     7 2   
    11     7     8 1   
    12     7    22 1   
    13     8     9 1   
    14     8    12 1   
    15     9    10 2   
    16    10    11 1   
    17    10    23 1   
    18    11    12 2   
    19    11    24 1   
    20    13    14 1   
    21    13    25 1   
    22    13    26 1   
    23    14    15 1   
    24    14    19 1   
    25    14    27 1   
    26    15    16 1   
    27    15    28 1   
    28    15    29 1   
    29    16    17 1   
    30    16    30 1   
    31    16    31 1   
    32    17    18 1   
    33    17    32 1   
    34    17    33 1   
    35    18    19 1   
    36    18    34 1   
    37    18    35 1   
    38    19    36 1   
    39    19    37 1   
@<TRIPOS>SUBSTRUCTURE
     1 S43         1 TEMP              0 ****  ****    0 ROOT
