@<TRIPOS>MOLECULE
S29
   32    34     1     0     1 
SMALL
USER_CHARGES
@<TRIPOS>ATOM
  1 O1      0.960000    0.150000   -0.044000 o     1 S29    -0.5991 ****
  2 C1      2.163000    0.138000    0.184000 c     1 S29     0.7661 ****
  3 N1      2.779000   -0.791000    1.009000 ns    1 S29    -0.4631 ****
  4 C2      2.103000   -1.881000    1.644000 ca    1 S29    -0.0397 ****
  5 C3      0.841000   -2.311000    1.224000 ca    1 S29     0.3852 ****
  6 N2      0.142000   -3.320000    1.785000 nb    1 S29    -0.6390 ****
  7 C4      0.738000   -3.947000    2.820000 ca    1 S29     0.3569 ****
  8 C5      1.989000   -3.655000    3.330000 ca    1 S29     0.2873 ****
  9 C6      2.702000   -2.588000    2.731000 ca    1 S29    -0.1463 ****
 10 C7      3.969000   -2.312000    3.299000 ca    1 S29    -0.0950 ****
 11 C8      4.459000   -3.068000    4.363000 ca    1 S29    -0.2323 ****
 12 C9      3.675000   -4.090000    4.851000 ca    1 S29     0.4082 ****
 13 N3      2.459000   -4.389000    4.359000 nb    1 S29    -0.6370 ****
 14 N4      3.056000    1.061000   -0.336000 ns    1 S29    -0.4581 ****
 15 C10     2.670000    2.236000   -1.034000 ca    1 S29     0.0546 ****
 16 C11     1.384000    2.782000   -0.940000 ca    1 S29    -0.1540 ****
 17 C12     1.038000    3.941000   -1.637000 ca    1 S29    -0.1085 ****
 18 C13     1.983000    4.580000   -2.432000 ca    1 S29    -0.1470 ****
 19 C14     3.272000    4.056000   -2.526000 ca    1 S29    -0.1085 ****
 20 C15     3.617000    2.892000   -1.827000 ca    1 S29    -0.1540 ****
 21 H1      3.692000   -0.538000    1.349000 hn    1 S29     0.3095 ****
 22 H2      0.318000   -1.870000    0.382000 h4    1 S29     0.0591 ****
 23 H3      0.150000   -4.748000    3.260000 h4    1 S29     0.0431 ****
 24 H4      4.593000   -1.505000    2.930000 ha    1 S29     0.1300 ****
 25 H5      5.429000   -2.862000    4.802000 ha    1 S29     0.1480 ****
 26 H6      4.006000   -4.716000    5.675000 h4    1 S29     0.0281 ****
 27 H7      4.015000    0.764000   -0.442000 hn    1 S29     0.3065 ****
 28 H8      0.617000    2.333000   -0.316000 ha    1 S29     0.1480 ****
 29 H9      0.029000    4.336000   -1.552000 ha    1 S29     0.1350 ****
 30 H10     1.713000    5.483000   -2.972000 ha    1 S29     0.1350 ****
 31 H11     4.008000    4.556000   -3.150000 ha    1 S29     0.1350 ****
 32 H12     4.627000    2.505000   -1.932000 ha    1 S29     0.1480 ****
@<TRIPOS>BOND
    1     1     2 1
    2     2     3 1
    3     2    14 1
    4     3     4 1
    5     3    21 1
    6     4     5 1
    7     4     9 1
    8     5     6 1
    9     5    22 1
   10     6     7 1
   11     7     8 1
   12     7    23 1
   13     8     9 1
   14     8    13 1
   15     9    10 1
   16    10    11 1
   17    10    24 1
   18    11    12 1
   19    11    25 1
   20    12    13 1
   21    12    26 1
   22    14    15 1
   23    14    27 1
   24    15    16 1
   25    15    20 1
   26    16    17 1
   27    16    28 1
   28    17    18 1
   29    17    29 1
   30    18    19 1
   31    18    30 1
   32    19    20 1
   33    19    31 1
   34    20    32 1
@<TRIPOS>SUBSTRUCTURE
      1  S29              1 ****               0 ****  **** 
