@<TRIPOS>MOLECULE
S37
   36    37     1     0     0
SMALL
bcc


@<TRIPOS>ATOM
      1 O1           1.4530    -0.7020    -0.6300 o          1 S37      -0.581100
      2 C1           2.2370     0.0420    -0.0460 c          1 S37       0.667100
      3 N1           2.4550     0.0590     1.3210 ns         1 S37      -0.469100
      4 C2           1.7230    -0.7010     2.2660 ca         1 S37      -0.005700
      5 C3           0.5140    -1.3370     1.9910 ca         1 S37       0.331200
      6 N2          -0.2070    -2.0370     2.8980 nb         1 S37      -0.615000
      7 C4           0.3160    -2.1250     4.1390 ca         1 S37       0.309200
      8 C5           1.5420    -1.5860     4.5230 ca         1 S37       0.052300
      9 C6           2.2130    -0.8070     3.5740 ca         1 S37      -0.225000
     10 N3           1.9720    -1.6220     5.8570 nv         1 S37      -0.814200
     11 C7           3.0360     1.0570    -0.8360 c3         1 S37      -0.155400
     12 C8           4.5620     0.8630    -0.8230 c3         1 S37      -0.055700
     13 C9           5.0090    -0.5420    -1.2600 c3         1 S37      -0.075900
     14 C10          4.7850    -0.8110    -2.7470 c3         1 S37      -0.077400
     15 C11          5.4190     0.2670    -3.6230 c3         1 S37      -0.078400
     16 C12          4.9920     1.6720    -3.2120 c3         1 S37      -0.077400
     17 C13          5.2340     1.9200    -1.7210 c3         1 S37      -0.075900
     18 H1           3.2420     0.5900     1.6670 hn         1 S37       0.315500
     19 H2           0.0340    -1.2800     1.0180 h4         1 S37       0.062100
     20 H3          -0.3020    -2.6710     4.8460 h4         1 S37       0.022100
     21 H4           3.1330    -0.3020     3.8570 ha         1 S37       0.133000
     22 H5           1.6120    -2.4180     6.3790 hn         1 S37       0.392800
     23 H6           2.9750    -1.5170     5.9730 hn         1 S37       0.392800
     24 H7           2.7820     2.0540    -0.4540 hc         1 S37       0.075700
     25 H8           2.6500     1.0200    -1.8610 hc         1 S37       0.075700
     26 H9           4.9160     1.0200     0.2040 hc         1 S37       0.038700
     27 H10          4.5070    -1.3140    -0.6660 hc         1 S37       0.044700
     28 H11          6.0820    -0.6470    -1.0460 hc         1 S37       0.044700
     29 H12          3.7110    -0.8720    -2.9550 hc         1 S37       0.043700
     30 H13          5.2120    -1.7860    -3.0080 hc         1 S37       0.043700
     31 H14          5.1510     0.0910    -4.6710 hc         1 S37       0.041200
     32 H15          6.5110     0.1900    -3.5580 hc         1 S37       0.041200
     33 H16          3.9340     1.8190    -3.4540 hc         1 S37       0.043700
     34 H17          5.5460     2.4110    -3.8010 hc         1 S37       0.043700
     35 H18          4.8820     2.9240    -1.4540 hc         1 S37       0.044700
     36 H19          6.3160     1.9100    -1.5350 hc         1 S37       0.044700
@<TRIPOS>BOND
     1     1     2 2   
     2     2     3 1   
     3     2    11 1   
     4     3     4 1   
     5     3    18 1   
     6     4     5 ar  
     7     4     9 ar  
     8     5     6 ar  
     9     5    19 1   
    10     6     7 ar  
    11     7     8 ar  
    12     7    20 1   
    13     8     9 ar  
    14     8    10 1   
    15     9    21 1   
    16    10    22 1   
    17    10    23 1   
    18    11    12 1   
    19    11    24 1   
    20    11    25 1   
    21    12    13 1   
    22    12    17 1   
    23    12    26 1   
    24    13    14 1   
    25    13    27 1   
    26    13    28 1   
    27    14    15 1   
    28    14    29 1   
    29    14    30 1   
    30    15    16 1   
    31    15    31 1   
    32    15    32 1   
    33    16    17 1   
    34    16    33 1   
    35    16    34 1   
    36    17    35 1   
    37    17    36 1   
@<TRIPOS>SUBSTRUCTURE
     1 S37         1 TEMP              0 ****  ****    0 ROOT
