@<TRIPOS>MOLECULE
S38
   39    40     1     0     0
SMALL
bcc


@<TRIPOS>ATOM
      1 C1           6.7050     1.9760     1.2560 c3         1 S38       0.173100
      2 N1           6.3640     0.8640     2.1290 nu         1 S38      -0.726600
      3 C2           5.0460     0.4060     2.1970 ca         1 S38       0.057300
      4 C3           4.0410     0.7850     1.3040 ca         1 S38       0.314200
      5 N2           2.7910     0.2740     1.2720 nb         1 S38      -0.617000
      6 C4           2.5120    -0.6800     2.1870 ca         1 S38       0.333200
      7 C5           3.4130    -1.1470     3.1410 ca         1 S38      -0.008700
      8 C6           4.7060    -0.6070     3.1120 ca         1 S38      -0.223000
      9 N3           3.0900    -2.1430     4.1030 ns         1 S38      -0.468100
     10 C7           1.7920    -2.5040     4.4350 c          1 S38       0.667100
     11 O1           0.7880    -1.9290     4.0320 o          1 S38      -0.584100
     12 C8           1.6880    -3.6610     5.4220 c3         1 S38      -0.149400
     13 C9           0.3480    -4.4150     5.2550 c3         1 S38      -0.058700
     14 C10          0.2320    -5.1160     3.8850 c3         1 S38      -0.077400
     15 C11          1.0510    -6.4010     3.7910 c3         1 S38      -0.077400
     16 C12          0.6970    -7.3600     4.9190 c3         1 S38      -0.077400
     17 C13          0.8900    -6.7020     6.2800 c3         1 S38      -0.077400
     18 C14          0.0870    -5.4080     6.3980 c3         1 S38      -0.077400
     19 H1           7.7580     2.2410     1.3930 h1         1 S38       0.040033
     20 H2           6.1050     2.8670     1.4700 h1         1 S38       0.040033
     21 H3           6.5750     1.6950     0.2040 h1         1 S38       0.040033
     22 H4           6.8700     0.8410     3.0090 hn         1 S38       0.396800
     23 H5           4.2090     1.5460     0.5490 h4         1 S38       0.023100
     24 H6           1.5090    -1.0850     2.0850 h4         1 S38       0.062100
     25 H7           5.4570    -0.9570     3.8140 ha         1 S38       0.132000
     26 H8           3.8500    -2.5320     4.6450 hn         1 S38       0.315500
     27 H9           1.7280    -3.2130     6.4210 hc         1 S38       0.069200
     28 H10          2.5470    -4.3360     5.3250 hc         1 S38       0.069200
     29 H11         -0.4570    -3.6680     5.3020 hc         1 S38       0.069700
     30 H12          0.5210    -4.4430     3.0700 hc         1 S38       0.045950
     31 H13         -0.8240    -5.3640     3.7100 hc         1 S38       0.045950
     32 H14          2.1210    -6.1660     3.8260 hc         1 S38       0.037950
     33 H15          0.8640    -6.8820     2.8250 hc         1 S38       0.037950
     34 H16          1.3170    -8.2620     4.8490 hc         1 S38       0.042200
     35 H17         -0.3460    -7.6840     4.8110 hc         1 S38       0.042200
     36 H18          1.9540    -6.4940     6.4410 hc         1 S38       0.037950
     37 H19          0.5780    -7.3970     7.0680 hc         1 S38       0.037950
     38 H20          0.2840    -4.9370     7.3670 hc         1 S38       0.045950
     39 H21         -0.9810    -5.6670     6.3930 hc         1 S38       0.045950
@<TRIPOS>BOND
     1     1     2 1   
     2     1    19 1   
     3     1    20 1   
     4     1    21 1   
     5     2     3 1   
     6     2    22 1   
     7     3     4 ar  
     8     3     8 ar  
     9     4     5 ar  
    10     4    23 1   
    11     5     6 ar  
    12     6     7 ar  
    13     6    24 1   
    14     7     8 ar  
    15     7     9 1   
    16     8    25 1   
    17     9    10 1   
    18     9    26 1   
    19    10    11 2   
    20    10    12 1   
    21    12    13 1   
    22    12    27 1   
    23    12    28 1   
    24    13    14 1   
    25    13    18 1   
    26    13    29 1   
    27    14    15 1   
    28    14    30 1   
    29    14    31 1   
    30    15    16 1   
    31    15    32 1   
    32    15    33 1   
    33    16    17 1   
    34    16    34 1   
    35    16    35 1   
    36    17    18 1   
    37    17    36 1   
    38    17    37 1   
    39    18    38 1   
    40    18    39 1   
@<TRIPOS>SUBSTRUCTURE
     1 S38         1 TEMP              0 ****  ****    0 ROOT
