@<TRIPOS>MOLECULE
S44
   37    39     1     0     0
SMALL
bcc


@<TRIPOS>ATOM
      1 O1           1.1940    -0.1520     0.8430 o          1 S44      -0.569100
      2 C1           2.2310     0.0890     0.2220 c          1 S44       0.672100
      3 N1           2.6370     1.3570    -0.1500 ns         1 S44      -0.482100
      4 C2           1.9730     2.5350     0.1860 cc         1 S44       0.003000
      5 C3           1.1290     2.6540     1.2440 cd         1 S44       0.333200
      6 N2           0.4050     3.7910     1.5750 nd         1 S44      -0.630000
      7 C4           0.5230     4.8310     0.7980 cc         1 S44       0.434200
      8 C5           1.4050     4.8230    -0.3310 cc         1 S44      -0.137600
      9 N3           2.1280     3.6860    -0.6010 na         1 S44      -0.000300
     10 C6           2.8760     3.9730    -1.7170 cc         1 S44      -0.234100
     11 C7           2.5350     5.2630    -2.0670 cd         1 S44       0.016600
     12 N4           1.6220     5.7910    -1.1880 nd         1 S44      -0.265600
     13 C8           3.0490    -1.0770    -0.3010 c3         1 S44      -0.151400
     14 C9           4.5810    -0.9740    -0.2470 c3         1 S44      -0.055700
     15 C10          5.1220    -0.6620     1.1570 c3         1 S44      -0.075900
     16 C11          4.9010    -1.8090     2.1400 c3         1 S44      -0.077900
     17 C12          5.5010    -3.1140     1.6230 c3         1 S44      -0.078400
     18 C13          5.0320    -3.4580     0.2120 c3         1 S44      -0.077900
     19 C14          5.2140    -2.2860    -0.7570 c3         1 S44      -0.075900
     20 H1           3.3560     1.4190    -0.8600 hn         1 S44       0.324500
     21 H2           0.9690     1.8300     1.9330 h4         1 S44       0.070100
     22 H3          -0.0650     5.7370     1.0120 h4         1 S44       0.054100
     23 H4           3.5550     3.2660    -2.1690 h4         1 S44       0.178000
     24 H5           2.8970     5.8400    -2.9100 h4         1 S44       0.185000
     25 H6           2.7240    -1.2650    -1.3320 hc         1 S44       0.078200
     26 H7           2.7220    -1.9420     0.2860 hc         1 S44       0.078200
     27 H8           4.8970    -0.1670    -0.9200 hc         1 S44       0.040700
     28 H9           4.6750     0.2560     1.5530 hc         1 S44       0.045700
     29 H10          6.2010    -0.4680     1.0820 hc         1 S44       0.045700
     30 H11          3.8280    -1.9420     2.3260 hc         1 S44       0.044200
     31 H12          5.3550    -1.5560     3.1040 hc         1 S44       0.044200
     32 H13          5.2420    -3.9320     2.3050 hc         1 S44       0.042200
     33 H14          6.5950    -3.0310     1.6270 hc         1 S44       0.042200
     34 H15          3.9790    -3.7610     0.2410 hc         1 S44       0.044200
     35 H16          5.5890    -4.3260    -0.1570 hc         1 S44       0.044200
     36 H17          4.7950    -2.5530    -1.7350 hc         1 S44       0.045700
     37 H18          6.2880    -2.1250    -0.9140 hc         1 S44       0.045700
@<TRIPOS>BOND
     1     1     2 2   
     2     2     3 1   
     3     2    13 1   
     4     3     4 1   
     5     3    20 1   
     6     4     5 2   
     7     4     9 1   
     8     5     6 1   
     9     5    21 1   
    10     6     7 2   
    11     7     8 1   
    12     7    22 1   
    13     8     9 1   
    14     8    12 2   
    15     9    10 1   
    16    10    11 2   
    17    10    23 1   
    18    11    12 1   
    19    11    24 1   
    20    13    14 1   
    21    13    25 1   
    22    13    26 1   
    23    14    15 1   
    24    14    19 1   
    25    14    27 1   
    26    15    16 1   
    27    15    28 1   
    28    15    29 1   
    29    16    17 1   
    30    16    30 1   
    31    16    31 1   
    32    17    18 1   
    33    17    32 1   
    34    17    33 1   
    35    18    19 1   
    36    18    34 1   
    37    18    35 1   
    38    19    36 1   
    39    19    37 1   
@<TRIPOS>SUBSTRUCTURE
     1 S44         1 TEMP              0 ****  ****    0 ROOT
