@<TRIPOS>MOLECULE
S39
   42    43     1     0     1 
SMALL
USER_CHARGES
@<TRIPOS>ATOM
  1 O1      0.839000    0.713000    0.342000 o     1 S39    -0.5851 ****
  2 C1      1.912000    0.139000    0.203000 c     1 S39     0.6671 ****
  3 N1      2.269000   -0.633000   -0.899000 ns    1 S39    -0.4681 ****
  4 C2      1.425000   -1.037000   -1.967000 ca    1 S39    -0.0237 ****
  5 C3      0.056000   -0.822000   -2.012000 ca    1 S39     0.3472 ****
  6 N2     -0.747000   -1.286000   -2.997000 nb    1 S39    -0.6260 ****
  7 C4     -0.151000   -1.994000   -3.992000 ca    1 S39     0.3182 ****
  8 C5      1.216000   -2.274000   -4.098000 ca    1 S39     0.0453 ****
  9 C6      1.991000   -1.763000   -3.035000 ca    1 S39    -0.1880 ****
 10 N3      1.771000   -3.073000   -5.105000 nh    1 S39    -0.6370 ****
 11 C7      0.894000   -3.725000   -6.084000 c3    1 S39     0.1721 ****
 12 C8      3.082000   -2.718000   -5.656000 c3    1 S39     0.1721 ****
 13 C9      3.017000    0.176000    1.260000 c3    1 S39    -0.1494 ****
 14 C10     2.791000    1.164000    2.429000 c3    1 S39    -0.0587 ****
 15 C11     1.659000    0.775000    3.397000 c3    1 S39    -0.0774 ****
 16 C12     1.989000   -0.392000    4.327000 c3    1 S39    -0.0774 ****
 17 C13     3.341000   -0.262000    5.023000 c3    1 S39    -0.0774 ****
 18 C14     4.465000    0.153000    4.080000 c3    1 S39    -0.0774 ****
 19 C15     4.089000    1.369000    3.236000 c3    1 S39    -0.0774 ****
 20 H1      3.235000   -0.930000   -0.959000 hn    1 S39     0.3165 ****
 21 H2     -0.480000   -0.297000   -1.230000 h4    1 S39     0.0631 ****
 22 H3     -0.864000   -2.340000   -4.734000 h4    1 S39     0.0231 ****
 23 H4      3.055000   -1.972000   -3.007000 ha    1 S39     0.1380 ****
 24 H5     -0.035000   -4.101000   -5.644000 h1    1 S39     0.0387 ****
 25 H6      1.401000   -4.601000   -6.504000 h1    1 S39     0.0387 ****
 26 H7      0.655000   -3.045000   -6.910000 h1    1 S39     0.0387 ****
 27 H8      3.790000   -2.333000   -4.919000 h1    1 S39     0.0387 ****
 28 H9      2.974000   -1.973000   -6.453000 h1    1 S39     0.0387 ****
 29 H10     3.547000   -3.609000   -6.094000 h1    1 S39     0.0387 ****
 30 H11     3.938000    0.467000    0.737000 hc    1 S39     0.0692 ****
 31 H12     3.153000   -0.844000    1.634000 hc    1 S39     0.0692 ****
 32 H13     2.523000    2.134000    1.988000 hc    1 S39     0.0697 ****
 33 H14     0.738000    0.545000    2.852000 hc    1 S39     0.0459 ****
 34 H15     1.429000    1.650000    4.019000 hc    1 S39     0.0459 ****
 35 H16     1.960000   -1.329000    3.761000 hc    1 S39     0.0382 ****
 36 H17     1.206000   -0.469000    5.092000 hc    1 S39     0.0382 ****
 37 H18     3.596000   -1.217000    5.497000 hc    1 S39     0.0422 ****
 38 H19     3.262000    0.474000    5.833000 hc    1 S39     0.0422 ****
 39 H20     4.731000   -0.689000    3.430000 hc    1 S39     0.0382 ****
 40 H21     5.360000    0.383000    4.671000 hc    1 S39     0.0382 ****
 41 H22     4.919000    1.619000    2.565000 hc    1 S39     0.0459 ****
 42 H23     3.959000    2.232000    3.902000 hc    1 S39     0.0459 ****
@<TRIPOS>BOND
    1     1     2 1
    2     2     3 1
    3     2    13 1
    4     3     4 1
    5     3    20 1
    6     4     5 1
    7     4     9 1
    8     5     6 1
    9     5    21 1
   10     6     7 1
   11     7     8 1
   12     7    22 1
   13     8     9 1
   14     8    10 1
   15     9    23 1
   16    10    11 1
   17    10    12 1
   18    11    24 1
   19    11    25 1
   20    11    26 1
   21    12    27 1
   22    12    28 1
   23    12    29 1
   24    13    14 1
   25    13    30 1
   26    13    31 1
   27    14    15 1
   28    14    19 1
   29    14    32 1
   30    15    16 1
   31    15    33 1
   32    15    34 1
   33    16    17 1
   34    16    35 1
   35    16    36 1
   36    17    18 1
   37    17    37 1
   38    17    38 1
   39    18    19 1
   40    18    39 1
   41    18    40 1
   42    19    41 1
   43    19    42 1
@<TRIPOS>SUBSTRUCTURE
      1  S39              1 ****               0 ****  **** 
