@<TRIPOS>MOLECULE
S42
   38    40     1     0     1 
SMALL
USER_CHARGES
@<TRIPOS>ATOM
  1 O1      1.203000   -0.605000    0.611000 o     1 S42    -0.5851 ****
  2 C1      2.185000   -0.045000    0.123000 c     1 S42     0.6651 ****
  3 N1      2.543000    1.268000    0.348000 ns    1 S42    -0.4621 ****
  4 C2      1.829000    2.177000    1.170000 ca    1 S42     0.0033 ****
  5 C3      0.804000    1.812000    2.049000 ca    1 S42     0.3322 ****
  6 N2      0.052000    2.668000    2.791000 nb    1 S42    -0.6290 ****
  7 C4      0.284000    3.988000    2.692000 ca    1 S42     0.3632 ****
  8 C5      1.311000    4.435000    1.872000 ca    1 S42    -0.1455 ****
  9 C6      2.106000    3.562000    1.121000 ca    1 S42    -0.1198 ****
 10 C7      3.049000    4.382000    0.427000 cc    1 S42    -0.1972 ****
 11 C8      2.793000    5.699000    0.750000 cd    1 S42    -0.0981 ****
 12 N3      1.733000    5.718000    1.614000 na    1 S42    -0.1814 ****
 13 C9      3.019000   -0.799000   -0.898000 c3    1 S42    -0.1544 ****
 14 C10     4.549000   -0.736000   -0.762000 c3    1 S42    -0.0557 ****
 15 C11     5.062000   -1.130000    0.631000 c3    1 S42    -0.0754 ****
 16 C12     4.876000   -2.615000    0.938000 c3    1 S42    -0.0774 ****
 17 C13     5.509000   -3.497000   -0.135000 c3    1 S42    -0.0774 ****
 18 C14     5.037000   -3.132000   -1.539000 c3    1 S42    -0.0774 ****
 19 C15     5.207000   -1.638000   -1.828000 c3    1 S42    -0.0754 ****
 20 H1      3.291000    1.664000   -0.207000 hn    1 S42     0.3195 ****
 21 H2      0.533000    0.774000    2.215000 h4    1 S42     0.0611 ****
 22 H3     -0.356000    4.643000    3.269000 h4    1 S42     0.0211 ****
 23 H4      3.831000    4.052000   -0.241000 ha    1 S42     0.1520 ****
 24 H5      3.267000    6.619000    0.434000 h4    1 S42     0.1680 ****
 25 H6      1.313000    6.551000    2.006000 hn    1 S42     0.3037 ****
 26 H7      2.719000   -0.441000   -1.891000 hc    1 S42     0.0747 ****
 27 H8      2.686000   -1.843000   -0.838000 hc    1 S42     0.0747 ****
 28 H9      4.865000    0.296000   -0.958000 hc    1 S42     0.0407 ****
 29 H10     4.579000   -0.530000    1.410000 hc    1 S42     0.0447 ****
 30 H11     6.133000   -0.895000    0.687000 hc    1 S42     0.0447 ****
 31 H12     3.808000   -2.847000    1.026000 hc    1 S42     0.0432 ****
 32 H13     5.328000   -2.845000    1.909000 hc    1 S42     0.0432 ****
 33 H14     5.279000   -4.548000    0.070000 hc    1 S42     0.0407 ****
 34 H15     6.600000   -3.396000   -0.086000 hc    1 S42     0.0407 ****
 35 H16     3.988000   -3.424000   -1.660000 hc    1 S42     0.0432 ****
 36 H17     5.602000   -3.714000   -2.277000 hc    1 S42     0.0432 ****
 37 H18     4.799000   -1.411000   -2.820000 hc    1 S42     0.0447 ****
 38 H19     6.279000   -1.410000   -1.873000 hc    1 S42     0.0447 ****
@<TRIPOS>BOND
    1     1     2 1
    2     2     3 1
    3     2    13 1
    4     3     4 1
    5     3    20 1
    6     4     5 1
    7     4     9 1
    8     5     6 1
    9     5    21 1
   10     6     7 1
   11     7     8 1
   12     7    22 1
   13     8     9 1
   14     8    12 1
   15     9    10 1
   16    10    11 1
   17    10    23 1
   18    11    12 1
   19    11    24 1
   20    12    25 1
   21    13    14 1
   22    13    26 1
   23    13    27 1
   24    14    15 1
   25    14    19 1
   26    14    28 1
   27    15    16 1
   28    15    29 1
   29    15    30 1
   30    16    17 1
   31    16    31 1
   32    16    32 1
   33    17    18 1
   34    17    33 1
   35    17    34 1
   36    18    19 1
   37    18    35 1
   38    18    36 1
   39    19    37 1
   40    19    38 1
@<TRIPOS>SUBSTRUCTURE
      1  S42              1 ****               0 ****  **** 
