@<TRIPOS>MOLECULE
S32
   30    32     1     0     1 
SMALL
USER_CHARGES
@<TRIPOS>ATOM
  1 O1      1.091000    0.228000   -0.231000 o     1 S32    -0.5891 ****
  2 C1      2.277000    0.033000   -0.004000 c     1 S32     0.7621 ****
  3 N1      2.912000   -1.186000   -0.199000 ns    1 S32    -0.4601 ****
  4 C2      2.312000   -2.346000   -0.673000 cc    1 S32    -0.0220 ****
  5 C3      1.178000   -2.381000   -1.415000 cd    1 S32     0.3742 ****
  6 N2      0.546000   -3.534000   -1.866000 nd    1 S32    -0.6380 ****
  7 C4      1.074000   -4.681000   -1.539000 cc    1 S32     0.4492 ****
  8 C5      2.279000   -4.756000   -0.767000 cc    1 S32    -0.1456 ****
  9 N3      2.880000   -3.590000   -0.363000 na    1 S32     0.0027 ****
 10 C6      3.990000   -3.963000    0.356000 cc    1 S32    -0.2341 ****
 11 C7      3.978000   -5.343000    0.356000 cd    1 S32     0.0176 ****
 12 N4      2.912000   -5.832000   -0.354000 nd    1 S32    -0.2616 ****
 13 N5      3.148000    0.972000    0.523000 ns    1 S32    -0.4521 ****
 14 C8      2.761000    2.213000    1.080000 ca    1 S32     0.0486 ****
 15 C9      1.461000    2.473000    1.525000 ca    1 S32    -0.1515 ****
 16 C10     1.132000    3.713000    2.077000 ca    1 S32    -0.1085 ****
 17 C11     2.102000    4.703000    2.194000 ca    1 S32    -0.1440 ****
 18 C12     3.405000    4.449000    1.769000 ca    1 S32    -0.1085 ****
 19 C13     3.736000    3.206000    1.222000 ca    1 S32    -0.1515 ****
 20 H1      3.780000   -1.292000    0.306000 hn    1 S32     0.3115 ****
 21 H2      0.673000   -1.468000   -1.720000 h4    1 S32     0.0651 ****
 22 H3      0.589000   -5.616000   -1.862000 h4    1 S32     0.0551 ****
 23 H4      4.667000   -3.256000    0.808000 h4    1 S32     0.1790 ****
 24 H5      4.684000   -6.010000    0.835000 h4    1 S32     0.1860 ****
 25 H6      4.123000    0.868000    0.285000 hn    1 S32     0.3085 ****
 26 H7      0.679000    1.721000    1.468000 ha    1 S32     0.1490 ****
 27 H8      0.114000    3.898000    2.414000 ha    1 S32     0.1365 ****
 28 H9      1.841000    5.670000    2.618000 ha    1 S32     0.1360 ****
 29 H10     4.161000    5.225000    1.858000 ha    1 S32     0.1365 ****
 30 H11     4.757000    3.038000    0.894000 ha    1 S32     0.1490 ****
@<TRIPOS>BOND
    1     1     2 1
    2     2     3 1
    3     2    13 1
    4     3     4 1
    5     3    20 1
    6     4     5 1
    7     4     9 1
    8     5     6 1
    9     5    21 1
   10     6     7 1
   11     7     8 1
   12     7    22 1
   13     8     9 1
   14     8    12 1
   15     9    10 1
   16    10    11 1
   17    10    23 1
   18    11    12 1
   19    11    24 1
   20    13    14 1
   21    13    25 1
   22    14    15 1
   23    14    19 1
   24    15    16 1
   25    15    26 1
   26    16    17 1
   27    16    27 1
   28    17    18 1
   29    17    28 1
   30    18    19 1
   31    18    29 1
   32    19    30 1
@<TRIPOS>SUBSTRUCTURE
      1  S32              1 ****               0 ****  **** 
