@<TRIPOS>MOLECULE
S34
   30    32     1     0     1 
SMALL
USER_CHARGES
@<TRIPOS>ATOM
  1 O1      1.117000    0.358000    0.204000 o     1 S34    -0.6001 ****
  2 C1      2.305000    0.110000    0.034000 c     1 S34     0.7731 ****
  3 N1      2.934000    0.156000   -1.198000 ns    1 S34    -0.4601 ****
  4 C2      2.284000    0.461000   -2.420000 ca    1 S34     0.0243 ****
  5 C3      1.020000    1.050000   -2.532000 ca    1 S34     0.3442 ****
  6 N2      0.357000    1.296000   -3.694000 nb    1 S34    -0.6190 ****
  7 C4      0.933000    0.952000   -4.862000 ca    1 S34     0.3712 ****
  8 C5      2.200000    0.395000   -4.835000 ca    1 S34    -0.1455 ****
  9 C6      2.893000    0.155000   -3.652000 ca    1 S34    -0.2399 ****
 10 C7      4.119000   -0.402000   -4.089000 cc    1 S34     0.3338 ****
 11 N3      4.199000   -0.517000   -5.418000 nd    1 S34    -0.4951 ****
 12 N4      3.017000   -0.038000   -5.843000 na    1 S34    -0.0111 ****
 13 N5      3.173000   -0.271000    1.042000 ns    1 S34    -0.4601 ****
 14 C8      2.780000   -0.632000    2.353000 ca    1 S34     0.0566 ****
 15 C9      1.477000   -1.032000    2.668000 ca    1 S34    -0.1545 ****
 16 C10     1.134000   -1.387000    3.976000 ca    1 S34    -0.1085 ****
 17 C11     2.092000   -1.349000    4.980000 ca    1 S34    -0.1470 ****
 18 C12     3.399000   -0.968000    4.676000 ca    1 S34    -0.1085 ****
 19 C13     3.745000   -0.620000    3.366000 ca    1 S34    -0.1545 ****
 20 H1      3.835000   -0.292000   -1.260000 hn    1 S34     0.3145 ****
 21 H2      0.459000    1.373000   -1.660000 h4    1 S34     0.0651 ****
 22 H3      0.367000    1.139000   -5.766000 h4    1 S34     0.0301 ****
 23 H4      4.959000   -0.732000   -3.494000 h4    1 S34     0.0508 ****
 24 H5      2.828000   -0.036000   -6.839000 hn    1 S34     0.3317 ****
 25 H6      4.150000   -0.058000    0.905000 hn    1 S34     0.3075 ****
 26 H7      0.701000   -1.092000    1.911000 ha    1 S34     0.1485 ****
 27 H8      0.112000   -1.686000    4.199000 ha    1 S34     0.1350 ****
 28 H9      1.822000   -1.618000    5.998000 ha    1 S34     0.1350 ****
 29 H10     4.148000   -0.938000    5.464000 ha    1 S34     0.1350 ****
 30 H11     4.768000   -0.320000    3.160000 ha    1 S34     0.1485 ****
@<TRIPOS>BOND
    1     1     2 1
    2     2     3 1
    3     2    13 1
    4     3     4 1
    5     3    20 1
    6     4     5 1
    7     4     9 1
    8     5     6 1
    9     5    21 1
   10     6     7 1
   11     7     8 1
   12     7    22 1
   13     8     9 1
   14     8    12 1
   15     9    10 1
   16    10    11 1
   17    10    23 1
   18    11    12 1
   19    12    24 1
   20    13    14 1
   21    13    25 1
   22    14    15 1
   23    14    19 1
   24    15    16 1
   25    15    26 1
   26    16    17 1
   27    16    27 1
   28    17    18 1
   29    17    28 1
   30    18    19 1
   31    18    29 1
   32    19    30 1
@<TRIPOS>SUBSTRUCTURE
      1  S34              1 ****               0 ****  **** 
