@<TRIPOS>MOLECULE
S26
   32    33     1     0     1 
SMALL
USER_CHARGES
@<TRIPOS>ATOM
  1 C1      6.577000   -1.938000   -2.505000 c3    1 S26     0.1741 ****
  2 N1      6.371000   -0.515000   -2.738000 nu    1 S26    -0.7276 ****
  3 C2      5.062000   -0.026000   -2.597000 ca    1 S26     0.0553 ****
  4 C3      4.140000   -0.532000   -1.677000 ca    1 S26     0.3212 ****
  5 N2      2.890000   -0.052000   -1.487000 nb    1 S26    -0.6190 ****
  6 C4      2.550000    1.042000   -2.210000 ca    1 S26     0.3502 ****
  7 C5      3.396000    1.676000   -3.116000 ca    1 S26    -0.0167 ****
  8 C6      4.666000    1.121000   -3.303000 ca    1 S26    -0.2170 ****
  9 N3      3.015000    2.817000   -3.863000 ns    1 S26    -0.4591 ****
 10 C7      1.995000    3.674000   -3.488000 c     1 S26     0.7681 ****
 11 O1      1.444000    3.649000   -2.396000 o     1 S26    -0.5991 ****
 12 N4      1.645000    4.536000   -4.518000 ns    1 S26    -0.4611 ****
 13 C8      0.645000    5.521000   -4.339000 ca    1 S26     0.0566 ****
 14 C9      0.573000    6.284000   -3.169000 ca    1 S26    -0.1550 ****
 15 C10    -0.455000    7.211000   -2.992000 ca    1 S26    -0.1085 ****
 16 C11    -1.422000    7.374000   -3.980000 ca    1 S26    -0.1480 ****
 17 C12    -1.345000    6.629000   -5.156000 ca    1 S26    -0.1085 ****
 18 C13    -0.299000    5.720000   -5.348000 ca    1 S26    -0.1550 ****
 19 H1      7.613000   -2.197000   -2.744000 h1    1 S26     0.0407 ****
 20 H2      5.925000   -2.539000   -3.149000 h1    1 S26     0.0407 ****
 21 H3      6.409000   -2.210000   -1.458000 h1    1 S26     0.0407 ****
 22 H4      6.811000   -0.198000   -3.598000 hn    1 S26     0.3978 ****
 23 H5      4.381000   -1.367000   -1.028000 h4    1 S26     0.0241 ****
 24 H6      1.532000    1.374000   -2.032000 h4    1 S26     0.0601 ****
 25 H7      5.365000    1.587000   -3.990000 ha    1 S26     0.1320 ****
 26 H8      3.679000    3.186000   -4.530000 hn    1 S26     0.3065 ****
 27 H9      1.714000    4.130000   -5.440000 hn    1 S26     0.3065 ****
 28 H10     1.311000    6.163000   -2.379000 ha    1 S26     0.1485 ****
 29 H11    -0.508000    7.791000   -2.072000 ha    1 S26     0.1345 ****
 30 H12    -2.241000    8.072000   -3.827000 ha    1 S26     0.1340 ****
 31 H13    -2.114000    6.740000   -5.916000 ha    1 S26     0.1345 ****
 32 H14    -0.275000    5.133000   -6.261000 ha    1 S26     0.1485 ****
@<TRIPOS>BOND
    1     1     2 1
    2     1    19 1
    3     1    20 1
    4     1    21 1
    5     2     3 1
    6     2    22 1
    7     3     4 1
    8     3     8 1
    9     4     5 1
   10     4    23 1
   11     5     6 1
   12     6     7 1
   13     6    24 1
   14     7     8 1
   15     7     9 1
   16     8    25 1
   17     9    10 1
   18     9    26 1
   19    10    11 1
   20    10    12 1
   21    12    13 1
   22    12    27 1
   23    13    14 1
   24    13    18 1
   25    14    15 1
   26    14    28 1
   27    15    16 1
   28    15    29 1
   29    16    17 1
   30    16    30 1
   31    17    18 1
   32    17    31 1
   33    18    32 1
@<TRIPOS>SUBSTRUCTURE
      1  S26              1 ****               0 ****  **** 
