@<TRIPOS>MOLECULE
S31
   30    32     1     0     0
SMALL
bcc


@<TRIPOS>ATOM
      1 O1           0.9760     0.1850    -0.4390 o          1 S31      -0.602100
      2 C1           2.1610     0.0940    -0.1270 c          1 S31       0.769100
      3 N1           2.7610    -1.0810     0.2930 ns         1 S31      -0.451100
      4 C2           2.1310    -2.2990     0.4400 cc         1 S31      -0.023700
      5 C3           1.0020    -2.6930    -0.1940 cd         1 S31       0.366200
      6 N2           0.3320    -3.8940    -0.0050 nd         1 S31      -0.660000
      7 C4           0.8320    -4.7030     0.8850 cc         1 S31       0.521400
      8 N3           1.9960    -4.3700     1.5700 na         1 S31       0.045200
      9 C5           2.6980    -3.2060     1.3750 cc         1 S31      -0.074300
     10 C6           3.7720    -3.2650     2.2350 cd         1 S31      -0.338600
     11 C7           3.6130    -4.4910     2.9160 cd         1 S31       0.376500
     12 N4           2.5390    -5.1760     2.5090 nc         1 S31      -0.550100
     13 N5           3.0600     1.1480    -0.1140 ns         1 S31      -0.457100
     14 C8           2.7270     2.5060    -0.3170 ca         1 S31       0.054600
     15 C9           1.4340     3.0090    -0.1510 ca         1 S31      -0.153500
     16 C10          1.1550     4.3530    -0.4100 ca         1 S31      -0.108500
     17 C11          2.1710     5.2080    -0.8270 ca         1 S31      -0.146000
     18 C12          3.4720     4.7260    -0.9570 ca         1 S31      -0.108500
     19 C13          3.7520     3.3820    -0.6900 ca         1 S31      -0.153500
     20 H1           3.6280    -0.9610     0.7930 hn         1 S31       0.316500
     21 H2           0.5260    -2.0470    -0.9290 h4         1 S31       0.072100
     22 H3           0.3450    -5.6640     1.1130 h5         1 S31       0.074100
     23 H4           4.5460    -2.5270     2.3830 ha         1 S31       0.164000
     24 H5           4.2350    -4.9080     3.6980 h4         1 S31       0.056800
     25 H6           4.0320     0.9030    -0.2190 hn         1 S31       0.308500
     26 H7           0.6170     2.3760     0.1860 ha         1 S31       0.148500
     27 H8           0.1400     4.7240    -0.2920 ha         1 S31       0.135000
     28 H9           1.9480     6.2480    -1.0490 ha         1 S31       0.135000
     29 H10          4.2660     5.3940    -1.2780 ha         1 S31       0.135000
     30 H11          4.7730     3.0300    -0.8090 ha         1 S31       0.148500
@<TRIPOS>BOND
     1     1     2 2   
     2     2     3 1   
     3     2    13 1   
     4     3     4 1   
     5     3    20 1   
     6     4     5 2   
     7     4     9 1   
     8     5     6 1   
     9     5    21 1   
    10     6     7 2   
    11     7     8 1   
    12     7    22 1   
    13     8     9 1   
    14     8    12 1   
    15     9    10 2   
    16    10    11 1   
    17    10    23 1   
    18    11    12 2   
    19    11    24 1   
    20    13    14 1   
    21    13    25 1   
    22    14    15 ar  
    23    14    19 ar  
    24    15    16 ar  
    25    15    26 1   
    26    16    17 ar  
    27    16    27 1   
    28    17    18 ar  
    29    17    28 1   
    30    18    19 ar  
    31    18    29 1   
    32    19    30 1   
@<TRIPOS>SUBSTRUCTURE
     1 S31         1 TEMP              0 ****  ****    0 ROOT
