@<TRIPOS>MOLECULE
S41
   39    41     1     0     0
SMALL
bcc


@<TRIPOS>ATOM
      1 O1           1.4310    -0.2640     0.8740 o          1 S41      -0.580100
      2 C1           2.1340     0.0950    -0.0670 c          1 S41       0.666100
      3 N1           2.2490     1.3950    -0.5310 ns         1 S41      -0.470100
      4 C2           1.6530     2.5370     0.0920 ca         1 S41      -0.027700
      5 C3           1.1670     2.4810     1.4030 ca         1 S41       0.356200
      6 N2           0.6010     3.5140     2.0610 nb         1 S41      -0.635000
      7 C4           0.5130     4.6740     1.3770 ca         1 S41       0.345900
      8 C5           0.9570     4.8890     0.0880 ca         1 S41       0.292300
      9 C6           1.5470     3.7950    -0.5880 ca         1 S41      -0.152300
     10 C7           1.9660     4.0600    -1.9140 ca         1 S41      -0.091000
     11 C8           1.8010     5.3240    -2.4820 ca         1 S41      -0.236300
     12 C9           1.2200     6.3130    -1.7170 ca         1 S41       0.409200
     13 N3           0.8000     6.1150    -0.4570 nb         1 S41      -0.639000
     14 C10          2.9120    -0.9520    -0.8420 c3         1 S41      -0.154400
     15 C11          4.4440    -0.8620    -0.7240 c3         1 S41      -0.055700
     16 C12          4.9580    -0.8850     0.7280 c3         1 S41      -0.075400
     17 C13          4.7660    -2.2370     1.4110 c3         1 S41      -0.077400
     18 C14          5.3970    -3.3700     0.6060 c3         1 S41      -0.078400
     19 C15          4.9230    -3.3800    -0.8440 c3         1 S41      -0.077400
     20 C16          5.0990    -2.0140    -1.5140 c3         1 S41      -0.075400
     21 H1           2.6970     1.5280    -1.4280 hn         1 S41       0.316500
     22 H2           1.2340     1.5890     2.0150 h4         1 S41       0.064100
     23 H3           0.0430     5.4860     1.9260 h4         1 S41       0.042100
     24 H4           2.4140     3.2860    -2.5320 ha         1 S41       0.130000
     25 H5           2.1130     5.5330    -3.5010 ha         1 S41       0.147000
     26 H6           1.0680     7.3160    -2.1050 h4         1 S41       0.028100
     27 H7           2.6080    -0.8950    -1.8930 hc         1 S41       0.075200
     28 H8           2.5590    -1.9250    -0.4790 hc         1 S41       0.075200
     29 H9           4.7620     0.0860    -1.1750 hc         1 S41       0.039700
     30 H10          4.4820    -0.0980     1.3230 hc         1 S41       0.044950
     31 H11          6.0320    -0.6520     0.7200 hc         1 S41       0.044950
     32 H12          3.6970    -2.4360     1.5540 hc         1 S41       0.043950
     33 H13          5.2160    -2.2090     2.4110 hc         1 S41       0.043950
     34 H14          5.1640    -4.3320     1.0780 hc         1 S41       0.041700
     35 H15          6.4890    -3.2640     0.6270 hc         1 S41       0.041700
     36 H16          3.8700    -3.6850    -0.8810 hc         1 S41       0.043950
     37 H17          5.4810    -4.1380    -1.4050 hc         1 S41       0.043950
     38 H18          4.6930    -2.0530    -2.5310 hc         1 S41       0.044950
     39 H19          6.1730    -1.8100    -1.6150 hc         1 S41       0.044950
@<TRIPOS>BOND
     1     1     2 2   
     2     2     3 1   
     3     2    14 1   
     4     3     4 1   
     5     3    21 1   
     6     4     5 ar  
     7     4     9 ar  
     8     5     6 ar  
     9     5    22 1   
    10     6     7 ar  
    11     7     8 ar  
    12     7    23 1   
    13     8     9 ar  
    14     8    13 ar  
    15     9    10 ar  
    16    10    11 ar  
    17    10    24 1   
    18    11    12 ar  
    19    11    25 1   
    20    12    13 ar  
    21    12    26 1   
    22    14    15 1   
    23    14    27 1   
    24    14    28 1   
    25    15    16 1   
    26    15    20 1   
    27    15    29 1   
    28    16    17 1   
    29    16    30 1   
    30    16    31 1   
    31    17    18 1   
    32    17    32 1   
    33    17    33 1   
    34    18    19 1   
    35    18    34 1   
    36    18    35 1   
    37    19    20 1   
    38    19    36 1   
    39    19    37 1   
    40    20    38 1   
    41    20    39 1   
@<TRIPOS>SUBSTRUCTURE
     1 S41         1 TEMP              0 ****  ****    0 ROOT
