@<TRIPOS>MOLECULE
S34
   30    32     1     0     0
SMALL
bcc


@<TRIPOS>ATOM
      1 O1           1.1170     0.3580     0.2040 o          1 S34      -0.600100
      2 C1           2.3050     0.1100     0.0340 c          1 S34       0.773100
      3 N1           2.9340     0.1560    -1.1980 ns         1 S34      -0.460100
      4 C2           2.2840     0.4610    -2.4200 ca         1 S34       0.024300
      5 C3           1.0200     1.0500    -2.5320 ca         1 S34       0.344200
      6 N2           0.3570     1.2960    -3.6940 nb         1 S34      -0.619000
      7 C4           0.9330     0.9520    -4.8620 ca         1 S34       0.371200
      8 C5           2.2000     0.3950    -4.8350 ca         1 S34      -0.145500
      9 C6           2.8930     0.1550    -3.6520 ca         1 S34      -0.239900
     10 C7           4.1190    -0.4020    -4.0890 cc         1 S34       0.333800
     11 N3           4.1990    -0.5170    -5.4180 nd         1 S34      -0.495100
     12 N4           3.0170    -0.0380    -5.8430 na         1 S34      -0.011100
     13 N5           3.1730    -0.2710     1.0420 ns         1 S34      -0.460100
     14 C8           2.7800    -0.6320     2.3530 ca         1 S34       0.056600
     15 C9           1.4770    -1.0320     2.6680 ca         1 S34      -0.154500
     16 C10          1.1340    -1.3870     3.9760 ca         1 S34      -0.108500
     17 C11          2.0920    -1.3490     4.9800 ca         1 S34      -0.147000
     18 C12          3.3990    -0.9680     4.6760 ca         1 S34      -0.108500
     19 C13          3.7450    -0.6200     3.3660 ca         1 S34      -0.154500
     20 H1           3.8350    -0.2920    -1.2600 hn         1 S34       0.314500
     21 H2           0.4590     1.3730    -1.6600 h4         1 S34       0.065100
     22 H3           0.3670     1.1390    -5.7660 h4         1 S34       0.030100
     23 H4           4.9590    -0.7320    -3.4940 h4         1 S34       0.050800
     24 H5           2.8280    -0.0360    -6.8390 hn         1 S34       0.331700
     25 H6           4.1500    -0.0580     0.9050 hn         1 S34       0.307500
     26 H7           0.7010    -1.0920     1.9110 ha         1 S34       0.148500
     27 H8           0.1120    -1.6860     4.1990 ha         1 S34       0.135000
     28 H9           1.8220    -1.6180     5.9980 ha         1 S34       0.135000
     29 H10          4.1480    -0.9380     5.4640 ha         1 S34       0.135000
     30 H11          4.7680    -0.3200     3.1600 ha         1 S34       0.148500
@<TRIPOS>BOND
     1     1     2 2   
     2     2     3 1   
     3     2    13 1   
     4     3     4 1   
     5     3    20 1   
     6     4     5 ar  
     7     4     9 ar  
     8     5     6 ar  
     9     5    21 1   
    10     6     7 ar  
    11     7     8 ar  
    12     7    22 1   
    13     8     9 ar  
    14     8    12 1   
    15     9    10 1   
    16    10    11 2   
    17    10    23 1   
    18    11    12 1   
    19    12    24 1   
    20    13    14 1   
    21    13    25 1   
    22    14    15 ar  
    23    14    19 ar  
    24    15    16 ar  
    25    15    26 1   
    26    16    17 ar  
    27    16    27 1   
    28    17    18 ar  
    29    17    28 1   
    30    18    19 ar  
    31    18    29 1   
    32    19    30 1   
@<TRIPOS>SUBSTRUCTURE
     1 S34         1 TEMP              0 ****  ****    0 ROOT
