SPE_0024
 OpenBabel04152009593D

 27 28  0  0  0  0  0  0  0  0999 V2000
    1.0295    0.1164    0.4608 O   0  0  0  0  0  0  0  0  0  0  0  0
    2.2114    0.1007    0.1377 C   0  0  0  0  0  0  0  0  0  0  0  0
    2.8389    1.1004   -0.5879 N   0  0  0  0  0  0  0  0  0  0  0  0
    2.2156    2.2726   -1.0808 C   0  0  0  0  0  0  0  0  0  0  0  0
    0.9654    2.7290   -0.6665 C   0  0  0  0  0  0  0  0  0  0  0  0
    0.4017    3.8596   -1.2565 C   0  0  0  0  0  0  0  0  0  0  0  0
    1.1200    4.5172   -2.2385 C   0  0  0  0  0  0  0  0  0  0  0  0
    2.3487    4.1356   -2.6461 N   0  0  0  0  0  0  0  0  0  0  0  0
    2.8644    3.0288   -2.0557 C   0  0  0  0  0  0  0  0  0  0  0  0
    3.0864   -0.9333    0.4332 N   0  0  0  0  0  0  0  0  0  0  0  0
    2.7084   -2.1896    0.9614 C   0  0  0  0  0  0  0  0  0  0  0  0
    1.4011   -2.6829    0.8877 C   0  0  0  0  0  0  0  0  0  0  0  0
    1.0762   -3.9305    1.4203 C   0  0  0  0  0  0  0  0  0  0  0  0
    2.0584   -4.7054    2.0302 C   0  0  0  0  0  0  0  0  0  0  0  0
    3.3689   -4.2328    2.0951 C   0  0  0  0  0  0  0  0  0  0  0  0
    3.6955   -2.9848    1.5548 C   0  0  0  0  0  0  0  0  0  0  0  0
    3.7355    0.8635   -0.9849 H   0  0  0  0  0  0  0  0  0  0  0  0
    0.3981    2.2285    0.1115 H   0  0  0  0  0  0  0  0  0  0  0  0
   -0.5798    4.2083   -0.9550 H   0  0  0  0  0  0  0  0  0  0  0  0
    0.7123    5.3923   -2.7366 H   0  0  0  0  0  0  0  0  0  0  0  0
    3.8476    2.7532   -2.4252 H   0  0  0  0  0  0  0  0  0  0  0  0
    4.0650   -0.6968    0.4842 H   0  0  0  0  0  0  0  0  0  0  0  0
    0.6086   -2.1198    0.4021 H   0  0  0  0  0  0  0  0  0  0  0  0
    0.0526   -4.2924    1.3569 H   0  0  0  0  0  0  0  0  0  0  0  0
    1.8019   -5.6727    2.4524 H   0  0  0  0  0  0  0  0  0  0  0  0
    4.1351   -4.8369    2.5742 H   0  0  0  0  0  0  0  0  0  0  0  0
    4.7231   -2.6402    1.6261 H   0  0  0  0  0  0  0  0  0  0  0  0
  1  2  2  0  0  0  0
  2  3  1  0  0  0  0
  2 10  1  0  0  0  0
  3  4  1  0  0  0  0
  3 17  1  0  0  0  0
  4  5  1  0  0  0  0
  4  9  2  0  0  0  0
  5  6  2  0  0  0  0
  5 18  1  0  0  0  0
  6  7  1  0  0  0  0
  6 19  1  0  0  0  0
  7  8  2  0  0  0  0
  7 20  1  0  0  0  0
  8  9  1  0  0  0  0
  9 21  1  0  0  0  0
 10 11  1  0  0  0  0
 10 22  1  0  0  0  0
 11 12  1  0  0  0  0
 11 16  2  0  0  0  0
 12 13  2  0  0  0  0
 12 23  1  0  0  0  0
 13 14  1  0  0  0  0
 13 24  1  0  0  0  0
 14 15  2  0  0  0  0
 14 25  1  0  0  0  0
 15 16  1  0  0  0  0
 15 26  1  0  0  0  0
 16 27  1  0  0  0  0
M  END
$$$$
