SPE_0027
 OpenBabel04152009593D

 35 36  0  0  0  0  0  0  0  0999 V2000
    2.6805   -2.5930    2.0223 O   0  0  0  0  0  0  0  0  0  0  0  0
    2.2956   -1.6632    1.3253 C   0  0  0  0  0  0  0  0  0  0  0  0
    0.9870   -1.4833    0.9129 N   0  0  0  0  0  0  0  0  0  0  0  0
   -0.0962   -2.3270    1.2628 C   0  0  0  0  0  0  0  0  0  0  0  0
   -0.0458   -3.2311    2.3296 C   0  0  0  0  0  0  0  0  0  0  0  0
   -1.1147   -4.0884    2.5985 C   0  0  0  0  0  0  0  0  0  0  0  0
   -2.2604   -4.0383    1.8142 C   0  0  0  0  0  0  0  0  0  0  0  0
   -2.3415   -3.1178    0.7711 C   0  0  0  0  0  0  0  0  0  0  0  0
   -1.2679   -2.2601    0.4998 C   0  0  0  0  0  0  0  0  0  0  0  0
    3.1415   -0.6748    0.8463 N   0  0  0  0  0  0  0  0  0  0  0  0
    4.5570   -0.7239    0.9571 C   0  0  0  0  0  0  0  0  0  0  0  0
    5.2750   -1.8845    1.2326 C   0  0  0  0  0  0  0  0  0  0  0  0
    6.6213   -1.9418    1.3185 N   0  0  0  0  0  0  0  0  0  0  0  0
    7.2839   -0.7776    1.1276 C   0  0  0  0  0  0  0  0  0  0  0  0
    6.7025    0.4660    0.8505 C   0  0  0  0  0  0  0  0  0  0  0  0
    5.2975    0.4505    0.7606 C   0  0  0  0  0  0  0  0  0  0  0  0
    7.4456    1.6236    0.6912 N   0  0  0  0  0  0  0  0  0  0  0  0
    8.7687    1.7778    1.2904 C   0  0  0  0  0  0  0  0  0  0  0  0
    6.9985    2.7277   -0.1470 C   0  0  0  0  0  0  0  0  0  0  0  0
    0.8430   -0.8708    0.1226 H   0  0  0  0  0  0  0  0  0  0  0  0
    0.8200   -3.2995    2.9809 H   0  0  0  0  0  0  0  0  0  0  0  0
   -1.0377   -4.7978    3.4189 H   0  0  0  0  0  0  0  0  0  0  0  0
   -3.0859   -4.7148    2.0186 H   0  0  0  0  0  0  0  0  0  0  0  0
   -3.2398   -3.0766    0.1609 H   0  0  0  0  0  0  0  0  0  0  0  0
   -1.3568   -1.5650   -0.3299 H   0  0  0  0  0  0  0  0  0  0  0  0
    2.7244    0.2120    0.6046 H   0  0  0  0  0  0  0  0  0  0  0  0
    4.7986   -2.8479    1.3782 H   0  0  0  0  0  0  0  0  0  0  0  0
    8.3614   -0.8979    1.1813 H   0  0  0  0  0  0  0  0  0  0  0  0
    4.7641    1.3788    0.5868 H   0  0  0  0  0  0  0  0  0  0  0  0
    9.0536    0.9648    1.9645 H   0  0  0  0  0  0  0  0  0  0  0  0
    8.7919    2.6946    1.8903 H   0  0  0  0  0  0  0  0  0  0  0  0
    9.5332    1.8610    0.5107 H   0  0  0  0  0  0  0  0  0  0  0  0
    6.0614    2.5352   -0.6765 H   0  0  0  0  0  0  0  0  0  0  0  0
    7.7513    2.9360   -0.9160 H   0  0  0  0  0  0  0  0  0  0  0  0
    6.8727    3.6305    0.4594 H   0  0  0  0  0  0  0  0  0  0  0  0
  1  2  2  0  0  0  0
  2  3  1  0  0  0  0
  2 10  1  0  0  0  0
  3  4  1  0  0  0  0
  3 20  1  0  0  0  0
  4  5  1  0  0  0  0
  4  9  2  0  0  0  0
  5  6  2  0  0  0  0
  5 21  1  0  0  0  0
  6  7  1  0  0  0  0
  6 22  1  0  0  0  0
  7  8  2  0  0  0  0
  7 23  1  0  0  0  0
  8  9  1  0  0  0  0
  8 24  1  0  0  0  0
  9 25  1  0  0  0  0
 10 11  1  0  0  0  0
 10 26  1  0  0  0  0
 11 12  1  0  0  0  0
 11 16  2  0  0  0  0
 12 13  2  0  0  0  0
 12 27  1  0  0  0  0
 13 14  1  0  0  0  0
 14 15  2  0  0  0  0
 14 28  1  0  0  0  0
 15 16  1  0  0  0  0
 15 17  1  0  0  0  0
 16 29  1  0  0  0  0
 17 18  1  0  0  0  0
 17 19  1  0  0  0  0
 18 30  1  0  0  0  0
 18 31  1  0  0  0  0
 18 32  1  0  0  0  0
 19 33  1  0  0  0  0
 19 34  1  0  0  0  0
 19 35  1  0  0  0  0
M  END
$$$$
