SPE_0035
 OpenBabel04152009593D

 31 33  0  0  0  0  0  0  0  0999 V2000
    1.0332   -0.1080   -0.2574 O   0  0  0  0  0  0  0  0  0  0  0  0
    2.2224   -0.0021    0.0161 C   0  0  0  0  0  0  0  0  0  0  0  0
    2.8415   -0.7370    1.0063 N   0  0  0  0  0  0  0  0  0  0  0  0
    2.1883   -1.6816    1.8488 C   0  0  0  0  0  0  0  0  0  0  0  0
    0.9501   -2.2518    1.5692 C   0  0  0  0  0  0  0  0  0  0  0  0
    0.3093   -3.1029    2.3990 N   0  0  0  0  0  0  0  0  0  0  0  0
    0.9384   -3.3878    3.5615 C   0  0  0  0  0  0  0  0  0  0  0  0
    2.1789   -2.9070    3.9404 C   0  0  0  0  0  0  0  0  0  0  0  0
    2.8310   -2.0359    3.0382 C   0  0  0  0  0  0  0  0  0  0  0  0
    4.0574   -1.5275    3.3338 N   0  0  0  0  0  0  0  0  0  0  0  0
    4.5965   -1.8927    4.5189 C   0  0  0  0  0  0  0  0  0  0  0  0
    3.9453   -2.7309    5.3996 C   0  0  0  0  0  0  0  0  0  0  0  0
    2.7333   -3.2540    5.1267 N   0  0  0  0  0  0  0  0  0  0  0  0
    3.1020    0.8577   -0.6161 N   0  0  0  0  0  0  0  0  0  0  0  0
    2.7334    1.8283   -1.5778 C   0  0  0  0  0  0  0  0  0  0  0  0
    1.4255    2.3027   -1.7180 C   0  0  0  0  0  0  0  0  0  0  0  0
    1.1015    3.2248   -2.7159 C   0  0  0  0  0  0  0  0  0  0  0  0
    2.0879    3.6940   -3.5759 C   0  0  0  0  0  0  0  0  0  0  0  0
    3.4029    3.2600   -3.4210 C   0  0  0  0  0  0  0  0  0  0  0  0
    3.7279    2.3385   -2.4183 C   0  0  0  0  0  0  0  0  0  0  0  0
    3.7273   -0.4048    1.3694 H   0  0  0  0  0  0  0  0  0  0  0  0
    0.4099   -2.0579    0.6479 H   0  0  0  0  0  0  0  0  0  0  0  0
    0.3895   -4.0501    4.2250 H   0  0  0  0  0  0  0  0  0  0  0  0
    5.5761   -1.4863    4.7450 H   0  0  0  0  0  0  0  0  0  0  0  0
    4.3789   -3.0067    6.3531 H   0  0  0  0  0  0  0  0  0  0  0  0
    4.0791    0.6149   -0.5629 H   0  0  0  0  0  0  0  0  0  0  0  0
    0.6279    1.9750   -1.0577 H   0  0  0  0  0  0  0  0  0  0  0  0
    0.0740    3.5654   -2.8181 H   0  0  0  0  0  0  0  0  0  0  0  0
    1.8308    4.3976   -4.3629 H   0  0  0  0  0  0  0  0  0  0  0  0
    4.1752    3.6298   -4.0903 H   0  0  0  0  0  0  0  0  0  0  0  0
    4.7590    2.0092   -2.3288 H   0  0  0  0  0  0  0  0  0  0  0  0
  1  2  2  0  0  0  0
  2  3  1  0  0  0  0
  2 14  1  0  0  0  0
  3  4  1  0  0  0  0
  3 21  1  0  0  0  0
  4  5  1  0  0  0  0
  4  9  2  0  0  0  0
  5  6  2  0  0  0  0
  5 22  1  0  0  0  0
  6  7  1  0  0  0  0
  7  8  2  0  0  0  0
  7 23  1  0  0  0  0
  8  9  1  0  0  0  0
  8 13  1  0  0  0  0
  9 10  1  0  0  0  0
 10 11  2  0  0  0  0
 11 12  1  0  0  0  0
 11 24  1  0  0  0  0
 12 13  2  0  0  0  0
 12 25  1  0  0  0  0
 14 15  1  0  0  0  0
 14 26  1  0  0  0  0
 15 16  1  0  0  0  0
 15 20  2  0  0  0  0
 16 17  2  0  0  0  0
 16 27  1  0  0  0  0
 17 18  1  0  0  0  0
 17 28  1  0  0  0  0
 18 19  2  0  0  0  0
 18 29  1  0  0  0  0
 19 20  1  0  0  0  0
 19 30  1  0  0  0  0
 20 31  1  0  0  0  0
M  END
$$$$
