SPE_0034
 OpenBabel04152009593D

 30 32  0  0  0  0  0  0  0  0999 V2000
    0.9838   -0.1414    0.4458 O   0  0  0  0  0  0  0  0  0  0  0  0
    2.1681   -0.0843    0.1385 C   0  0  0  0  0  0  0  0  0  0  0  0
    2.7958    1.0579   -0.3215 N   0  0  0  0  0  0  0  0  0  0  0  0
    2.1523    2.3039   -0.5284 C   0  0  0  0  0  0  0  0  0  0  0  0
    0.8952    2.6541   -0.0235 C   0  0  0  0  0  0  0  0  0  0  0  0
    0.2442    3.8256   -0.2580 N   0  0  0  0  0  0  0  0  0  0  0  0
    0.8245    4.7528   -1.0454 C   0  0  0  0  0  0  0  0  0  0  0  0
    2.0835    4.4903   -1.5581 C   0  0  0  0  0  0  0  0  0  0  0  0
    2.7648    3.3015   -1.3094 C   0  0  0  0  0  0  0  0  0  0  0  0
    3.9846    3.4628   -2.0087 C   0  0  0  0  0  0  0  0  0  0  0  0
    4.0729    4.6322   -2.6476 N   0  0  0  0  0  0  0  0  0  0  0  0
    2.9013    5.2286   -2.3672 N   0  0  0  0  0  0  0  0  0  0  0  0
    3.0343   -1.1629    0.1860 N   0  0  0  0  0  0  0  0  0  0  0  0
    2.6427   -2.5070    0.3904 C   0  0  0  0  0  0  0  0  0  0  0  0
    1.3368   -2.9579    0.1702 C   0  0  0  0  0  0  0  0  0  0  0  0
    0.9972   -4.2962    0.3789 C   0  0  0  0  0  0  0  0  0  0  0  0
    1.9643   -5.2008    0.8049 C   0  0  0  0  0  0  0  0  0  0  0  0
    3.2722   -4.7675    1.0126 C   0  0  0  0  0  0  0  0  0  0  0  0
    3.6139   -3.4276    0.7972 C   0  0  0  0  0  0  0  0  0  0  0  0
    3.6934    0.9310   -0.7608 H   0  0  0  0  0  0  0  0  0  0  0  0
    0.3325    1.9891    0.6252 H   0  0  0  0  0  0  0  0  0  0  0  0
    0.2674    5.6626   -1.2310 H   0  0  0  0  0  0  0  0  0  0  0  0
    4.8149    2.7735   -2.0816 H   0  0  0  0  0  0  0  0  0  0  0  0
    2.7198    6.1445   -2.7634 H   0  0  0  0  0  0  0  0  0  0  0  0
    4.0134   -0.9524    0.3086 H   0  0  0  0  0  0  0  0  0  0  0  0
    0.5559   -2.2887   -0.1802 H   0  0  0  0  0  0  0  0  0  0  0  0
   -0.0250   -4.6235    0.2072 H   0  0  0  0  0  0  0  0  0  0  0  0
    1.6962   -6.2407    0.9724 H   0  0  0  0  0  0  0  0  0  0  0  0
    4.0264   -5.4745    1.3484 H   0  0  0  0  0  0  0  0  0  0  0  0
    4.6395   -3.1177    0.9748 H   0  0  0  0  0  0  0  0  0  0  0  0
  1  2  2  0  0  0  0
  2  3  1  0  0  0  0
  2 13  1  0  0  0  0
  3  4  1  0  0  0  0
  3 20  1  0  0  0  0
  4  5  1  0  0  0  0
  4  9  2  0  0  0  0
  5  6  2  0  0  0  0
  5 21  1  0  0  0  0
  6  7  1  0  0  0  0
  7  8  2  0  0  0  0
  7 22  1  0  0  0  0
  8  9  1  0  0  0  0
  8 12  1  0  0  0  0
  9 10  1  0  0  0  0
 10 11  2  0  0  0  0
 10 23  1  0  0  0  0
 11 12  1  0  0  0  0
 12 24  1  0  0  0  0
 13 14  1  0  0  0  0
 13 25  1  0  0  0  0
 14 15  1  0  0  0  0
 14 19  2  0  0  0  0
 15 16  2  0  0  0  0
 15 26  1  0  0  0  0
 16 17  1  0  0  0  0
 16 27  1  0  0  0  0
 17 18  2  0  0  0  0
 17 28  1  0  0  0  0
 18 19  1  0  0  0  0
 18 29  1  0  0  0  0
 19 30  1  0  0  0  0
M  END
$$$$
