SPE_0031
 OpenBabel04152009593D

 30 32  0  0  0  0  0  0  0  0999 V2000
    1.0891    0.3583   -0.0261 O   0  0  0  0  0  0  0  0  0  0  0  0
    2.2765    0.0432   -0.0101 C   0  0  0  0  0  0  0  0  0  0  0  0
    2.8623   -0.8037   -0.9352 N   0  0  0  0  0  0  0  0  0  0  0  0
    2.2008   -1.4236   -1.9753 C   0  0  0  0  0  0  0  0  0  0  0  0
    1.0568   -0.9888   -2.5592 C   0  0  0  0  0  0  0  0  0  0  0  0
    0.3414   -1.6461   -3.5486 N   0  0  0  0  0  0  0  0  0  0  0  0
    0.8041   -2.8014   -3.9291 C   0  0  0  0  0  0  0  0  0  0  0  0
    1.9840   -3.3044   -3.3895 N   0  0  0  0  0  0  0  0  0  0  0  0
    2.7370   -2.6524   -2.4427 C   0  0  0  0  0  0  0  0  0  0  0  0
    3.8198   -3.4674   -2.1989 C   0  0  0  0  0  0  0  0  0  0  0  0
    3.6085   -4.5936   -3.0231 C   0  0  0  0  0  0  0  0  0  0  0  0
    2.4957   -4.4982   -3.7572 N   0  0  0  0  0  0  0  0  0  0  0  0
    3.1892    0.4567    0.9468 N   0  0  0  0  0  0  0  0  0  0  0  0
    2.8647    1.1856    2.1132 C   0  0  0  0  0  0  0  0  0  0  0  0
    1.5765    1.2257    2.6560 C   0  0  0  0  0  0  0  0  0  0  0  0
    1.3025    2.0037    3.7835 C   0  0  0  0  0  0  0  0  0  0  0  0
    2.3179    2.7385    4.3858 C   0  0  0  0  0  0  0  0  0  0  0  0
    3.6140    2.6735    3.8781 C   0  0  0  0  0  0  0  0  0  0  0  0
    3.8898    1.8900    2.7529 C   0  0  0  0  0  0  0  0  0  0  0  0
    3.7290   -1.2241   -0.6409 H   0  0  0  0  0  0  0  0  0  0  0  0
    0.6056   -0.0462   -2.2552 H   0  0  0  0  0  0  0  0  0  0  0  0
    0.2754   -3.4006   -4.6867 H   0  0  0  0  0  0  0  0  0  0  0  0
    4.6353   -3.3017   -1.5106 H   0  0  0  0  0  0  0  0  0  0  0  0
    4.2200   -5.4832   -3.1127 H   0  0  0  0  0  0  0  0  0  0  0  0
    4.1565    0.4632    0.6650 H   0  0  0  0  0  0  0  0  0  0  0  0
    0.7593    0.6556    2.2227 H   0  0  0  0  0  0  0  0  0  0  0  0
    0.2904    2.0370    4.1796 H   0  0  0  0  0  0  0  0  0  0  0  0
    2.0984    3.3593    5.2506 H   0  0  0  0  0  0  0  0  0  0  0  0
    4.4086    3.2438    4.3516 H   0  0  0  0  0  0  0  0  0  0  0  0
    4.9064    1.8669    2.3716 H   0  0  0  0  0  0  0  0  0  0  0  0
  1  2  2  0  0  0  0
  2  3  1  0  0  0  0
  2 13  1  0  0  0  0
  3  4  1  0  0  0  0
  3 20  1  0  0  0  0
  4  5  2  0  0  0  0
  4  9  1  0  0  0  0
  5  6  1  0  0  0  0
  5 21  1  0  0  0  0
  6  7  2  0  0  0  0
  7  8  1  0  0  0  0
  7 22  1  0  0  0  0
  8  9  1  0  0  0  0
  8 12  1  0  0  0  0
  9 10  2  0  0  0  0
 10 11  1  0  0  0  0
 10 23  1  0  0  0  0
 11 12  2  0  0  0  0
 11 24  1  0  0  0  0
 13 14  1  0  0  0  0
 13 25  1  0  0  0  0
 14 15  1  0  0  0  0
 14 19  2  0  0  0  0
 15 16  2  0  0  0  0
 15 26  1  0  0  0  0
 16 17  1  0  0  0  0
 16 27  1  0  0  0  0
 17 18  2  0  0  0  0
 17 28  1  0  0  0  0
 18 19  1  0  0  0  0
 18 29  1  0  0  0  0
 19 30  1  0  0  0  0
M  END
$$$$
