SPE_0033
 OpenBabel04152009593D

 30 32  0  0  0  0  0  0  0  0999 V2000
    1.0886   -0.2514    0.1221 O   0  0  0  0  0  0  0  0  0  0  0  0
    2.2732    0.0366    0.0045 C   0  0  0  0  0  0  0  0  0  0  0  0
    2.9229    0.9503    0.8070 N   0  0  0  0  0  0  0  0  0  0  0  0
    2.3121    1.6953    1.8402 C   0  0  0  0  0  0  0  0  0  0  0  0
    1.0726    1.4407    2.4247 C   0  0  0  0  0  0  0  0  0  0  0  0
    0.4870    2.2022    3.3910 N   0  0  0  0  0  0  0  0  0  0  0  0
    1.1220    3.3064    3.8401 C   0  0  0  0  0  0  0  0  0  0  0  0
    2.3660    3.6082    3.3162 C   0  0  0  0  0  0  0  0  0  0  0  0
    2.9747    2.8254    2.3423 C   0  0  0  0  0  0  0  0  0  0  0  0
    4.2038    3.3527    1.9950 N   0  0  0  0  0  0  0  0  0  0  0  0
    4.3346    4.4329    2.7330 C   0  0  0  0  0  0  0  0  0  0  0  0
    3.2504    4.6291    3.5427 N   0  0  0  0  0  0  0  0  0  0  0  0
    3.1185   -0.5077   -0.9450 N   0  0  0  0  0  0  0  0  0  0  0  0
    2.7094   -1.3101   -2.0343 C   0  0  0  0  0  0  0  0  0  0  0  0
    1.3956   -1.3224   -2.5144 C   0  0  0  0  0  0  0  0  0  0  0  0
    1.0376   -2.1270   -3.5978 C   0  0  0  0  0  0  0  0  0  0  0  0
    1.9936   -2.9263   -4.2166 C   0  0  0  0  0  0  0  0  0  0  0  0
    3.3092   -2.9120   -3.7574 C   0  0  0  0  0  0  0  0  0  0  0  0
    3.6695   -2.0992   -2.6766 C   0  0  0  0  0  0  0  0  0  0  0  0
    3.8152    1.3161    0.4977 H   0  0  0  0  0  0  0  0  0  0  0  0
    0.4730    0.5809    2.1407 H   0  0  0  0  0  0  0  0  0  0  0  0
    0.6134    3.8988    4.5903 H   0  0  0  0  0  0  0  0  0  0  0  0
    5.1785    5.1101    2.7237 H   0  0  0  0  0  0  0  0  0  0  0  0
    3.1206    5.3982    4.1850 H   0  0  0  0  0  0  0  0  0  0  0  0
    4.1034   -0.5019   -0.7229 H   0  0  0  0  0  0  0  0  0  0  0  0
    0.6237   -0.7002   -2.0694 H   0  0  0  0  0  0  0  0  0  0  0  0
    0.0100   -2.1245   -3.9517 H   0  0  0  0  0  0  0  0  0  0  0  0
    1.7114   -3.5558   -5.0558 H   0  0  0  0  0  0  0  0  0  0  0  0
    4.0546   -3.5391   -4.2393 H   0  0  0  0  0  0  0  0  0  0  0  0
    4.7006   -2.1135   -2.3352 H   0  0  0  0  0  0  0  0  0  0  0  0
  1  2  2  0  0  0  0
  2  3  1  0  0  0  0
  2 13  1  0  0  0  0
  3  4  1  0  0  0  0
  3 20  1  0  0  0  0
  4  5  1  0  0  0  0
  4  9  2  0  0  0  0
  5  6  2  0  0  0  0
  5 21  1  0  0  0  0
  6  7  1  0  0  0  0
  7  8  2  0  0  0  0
  7 22  1  0  0  0  0
  8  9  1  0  0  0  0
  8 12  1  0  0  0  0
  9 10  1  0  0  0  0
 10 11  2  0  0  0  0
 11 12  1  0  0  0  0
 11 23  1  0  0  0  0
 12 24  1  0  0  0  0
 13 14  1  0  0  0  0
 13 25  1  0  0  0  0
 14 15  1  0  0  0  0
 14 19  2  0  0  0  0
 15 16  2  0  0  0  0
 15 26  1  0  0  0  0
 16 17  1  0  0  0  0
 16 27  1  0  0  0  0
 17 18  2  0  0  0  0
 17 28  1  0  0  0  0
 18 19  1  0  0  0  0
 18 29  1  0  0  0  0
 19 30  1  0  0  0  0
M  END
$$$$
