SPE_0030
 OpenBabel04152009593D

 31 33  0  0  0  0  0  0  0  0999 V2000
    0.9334   -0.3472   -0.1234 O   0  0  0  0  0  0  0  0  0  0  0  0
    2.1313   -0.1108   -0.0191 C   0  0  0  0  0  0  0  0  0  0  0  0
    2.7782   -0.0143    1.2011 N   0  0  0  0  0  0  0  0  0  0  0  0
    2.1263   -0.1593    2.4571 C   0  0  0  0  0  0  0  0  0  0  0  0
    0.8568   -0.7236    2.6311 C   0  0  0  0  0  0  0  0  0  0  0  0
    0.1825   -0.8212    3.8051 N   0  0  0  0  0  0  0  0  0  0  0  0
    0.7543   -0.3368    4.9222 C   0  0  0  0  0  0  0  0  0  0  0  0
    2.0291    0.2067    4.8461 C   0  0  0  0  0  0  0  0  0  0  0  0
    2.7408    0.2953    3.6438 C   0  0  0  0  0  0  0  0  0  0  0  0
    3.9959    0.8980    3.9697 C   0  0  0  0  0  0  0  0  0  0  0  0
    4.0062    1.1621    5.3217 C   0  0  0  0  0  0  0  0  0  0  0  0
    2.8114    0.7479    5.8387 N   0  0  0  0  0  0  0  0  0  0  0  0
    2.9750    0.1125   -1.0928 N   0  0  0  0  0  0  0  0  0  0  0  0
    2.5780    0.2078   -2.4524 C   0  0  0  0  0  0  0  0  0  0  0  0
    1.2440    0.1628   -2.8759 C   0  0  0  0  0  0  0  0  0  0  0  0
    0.9071    0.2823   -4.2271 C   0  0  0  0  0  0  0  0  0  0  0  0
    1.9016    0.4570   -5.1782 C   0  0  0  0  0  0  0  0  0  0  0  0
    3.2373    0.5040   -4.7763 C   0  0  0  0  0  0  0  0  0  0  0  0
    3.5727    0.3784   -3.4224 C   0  0  0  0  0  0  0  0  0  0  0  0
    3.6949    0.4025    1.2184 H   0  0  0  0  0  0  0  0  0  0  0  0
    0.3012   -1.1530    1.8049 H   0  0  0  0  0  0  0  0  0  0  0  0
    0.1789   -0.4044    5.8362 H   0  0  0  0  0  0  0  0  0  0  0  0
    4.8062    1.1201    3.2904 H   0  0  0  0  0  0  0  0  0  0  0  0
    4.7568    1.6143    5.9577 H   0  0  0  0  0  0  0  0  0  0  0  0
    2.5322    0.8261    6.8081 H   0  0  0  0  0  0  0  0  0  0  0  0
    3.9649    0.1427   -0.9070 H   0  0  0  0  0  0  0  0  0  0  0  0
    0.4203    0.0385   -2.1831 H   0  0  0  0  0  0  0  0  0  0  0  0
   -0.1387    0.2408   -4.5215 H   0  0  0  0  0  0  0  0  0  0  0  0
    1.6367    0.5570   -6.2273 H   0  0  0  0  0  0  0  0  0  0  0  0
    4.0148    0.6415   -5.5222 H   0  0  0  0  0  0  0  0  0  0  0  0
    4.6229    0.4202   -3.1454 H   0  0  0  0  0  0  0  0  0  0  0  0
  1  2  2  0  0  0  0
  2  3  1  0  0  0  0
  2 13  1  0  0  0  0
  3  4  1  0  0  0  0
  3 20  1  0  0  0  0
  4  5  1  0  0  0  0
  4  9  2  0  0  0  0
  5  6  2  0  0  0  0
  5 21  1  0  0  0  0
  6  7  1  0  0  0  0
  7  8  2  0  0  0  0
  7 22  1  0  0  0  0
  8  9  1  0  0  0  0
  8 12  1  0  0  0  0
  9 10  1  0  0  0  0
 10 11  2  0  0  0  0
 10 23  1  0  0  0  0
 11 12  1  0  0  0  0
 11 24  1  0  0  0  0
 12 25  1  0  0  0  0
 13 14  1  0  0  0  0
 13 26  1  0  0  0  0
 14 15  1  0  0  0  0
 14 19  2  0  0  0  0
 15 16  2  0  0  0  0
 15 27  1  0  0  0  0
 16 17  1  0  0  0  0
 16 28  1  0  0  0  0
 17 18  2  0  0  0  0
 17 29  1  0  0  0  0
 18 19  1  0  0  0  0
 18 30  1  0  0  0  0
 19 31  1  0  0  0  0
M  END
$$$$
