SPE_0028
 OpenBabel04152009593D

 31 33  0  0  0  0  0  0  0  0999 V2000
    0.9413   -0.0952    0.0837 O   0  0  0  0  0  0  0  0  0  0  0  0
    2.1477   -0.0154   -0.1004 C   0  0  0  0  0  0  0  0  0  0  0  0
    2.7619    1.0755   -0.6956 N   0  0  0  0  0  0  0  0  0  0  0  0
    2.0686    2.2523   -1.1188 C   0  0  0  0  0  0  0  0  0  0  0  0
    0.7804    2.5595   -0.6744 C   0  0  0  0  0  0  0  0  0  0  0  0
    0.0737    3.6462   -1.0551 N   0  0  0  0  0  0  0  0  0  0  0  0
    0.6827    4.4823   -1.9237 C   0  0  0  0  0  0  0  0  0  0  0  0
    1.9566    4.3240   -2.4312 C   0  0  0  0  0  0  0  0  0  0  0  0
    2.6662    3.1869   -2.0197 C   0  0  0  0  0  0  0  0  0  0  0  0
    3.9391    3.1034   -2.5897 C   0  0  0  0  0  0  0  0  0  0  0  0
    4.4691    4.0072   -3.4414 N   0  0  0  0  0  0  0  0  0  0  0  0
    3.6843    5.0440   -3.7441 C   0  0  0  0  0  0  0  0  0  0  0  0
    2.4492    5.2458   -3.2796 N   0  0  0  0  0  0  0  0  0  0  0  0
    3.0455   -1.0123    0.2441 N   0  0  0  0  0  0  0  0  0  0  0  0
    2.6637   -2.3146    0.6627 C   0  0  0  0  0  0  0  0  0  0  0  0
    1.3993   -2.8536    0.3933 C   0  0  0  0  0  0  0  0  0  0  0  0
    1.0591   -4.1409    0.8138 C   0  0  0  0  0  0  0  0  0  0  0  0
    1.9869   -4.9131    1.5009 C   0  0  0  0  0  0  0  0  0  0  0  0
    3.2535   -4.3955    1.7672 C   0  0  0  0  0  0  0  0  0  0  0  0
    3.5948   -3.1053    1.3450 C   0  0  0  0  0  0  0  0  0  0  0  0
    3.6944    0.9140   -1.0410 H   0  0  0  0  0  0  0  0  0  0  0  0
    0.2398    1.9484    0.0407 H   0  0  0  0  0  0  0  0  0  0  0  0
    0.0821    5.3389   -2.2180 H   0  0  0  0  0  0  0  0  0  0  0  0
    4.6090    2.2762   -2.3813 H   0  0  0  0  0  0  0  0  0  0  0  0
    4.0791    5.7896   -4.4263 H   0  0  0  0  0  0  0  0  0  0  0  0
    3.9930   -0.7300    0.4495 H   0  0  0  0  0  0  0  0  0  0  0  0
    0.6463   -2.2975   -0.1582 H   0  0  0  0  0  0  0  0  0  0  0  0
    0.0673   -4.5299    0.5983 H   0  0  0  0  0  0  0  0  0  0  0  0
    1.7210   -5.9151    1.8256 H   0  0  0  0  0  0  0  0  0  0  0  0
    3.9758   -5.0007    2.3091 H   0  0  0  0  0  0  0  0  0  0  0  0
    4.5855   -2.7269    1.5790 H   0  0  0  0  0  0  0  0  0  0  0  0
  1  2  2  0  0  0  0
  2  3  1  0  0  0  0
  2 14  1  0  0  0  0
  3  4  1  0  0  0  0
  3 21  1  0  0  0  0
  4  5  1  0  0  0  0
  4  9  2  0  0  0  0
  5  6  2  0  0  0  0
  5 22  1  0  0  0  0
  6  7  1  0  0  0  0
  7  8  2  0  0  0  0
  7 23  1  0  0  0  0
  8  9  1  0  0  0  0
  8 13  1  0  0  0  0
  9 10  1  0  0  0  0
 10 11  2  0  0  0  0
 10 24  1  0  0  0  0
 11 12  1  0  0  0  0
 12 13  2  0  0  0  0
 12 25  1  0  0  0  0
 14 15  1  0  0  0  0
 14 26  1  0  0  0  0
 15 16  1  0  0  0  0
 15 20  2  0  0  0  0
 16 17  2  0  0  0  0
 16 27  1  0  0  0  0
 17 18  1  0  0  0  0
 17 28  1  0  0  0  0
 18 19  2  0  0  0  0
 18 29  1  0  0  0  0
 19 20  1  0  0  0  0
 19 30  1  0  0  0  0
 20 31  1  0  0  0  0
M  END
$$$$
