SPE_0046
 OpenBabel04152010003D

 37 39  0  0  0  0  0  0  0  0999 V2000
    2.3070   -0.3894   -1.1276 O   0  0  0  0  0  0  0  0  0  0  0  0
    1.9438    0.2444   -0.1453 C   0  0  0  0  0  0  0  0  0  0  0  0
    0.6238    0.5140    0.2014 N   0  0  0  0  0  0  0  0  0  0  0  0
   -0.5402    0.1873   -0.5380 C   0  0  0  0  0  0  0  0  0  0  0  0
   -0.5591   -0.4445   -1.7841 C   0  0  0  0  0  0  0  0  0  0  0  0
   -1.6755   -0.7330   -2.5093 N   0  0  0  0  0  0  0  0  0  0  0  0
   -2.8877   -0.3974   -2.0207 C   0  0  0  0  0  0  0  0  0  0  0  0
   -2.9525    0.2245   -0.7855 C   0  0  0  0  0  0  0  0  0  0  0  0
   -1.8167    0.5209   -0.0355 C   0  0  0  0  0  0  0  0  0  0  0  0
   -2.3432    1.1419    1.1262 C   0  0  0  0  0  0  0  0  0  0  0  0
   -3.6754    1.2282    1.1169 N   0  0  0  0  0  0  0  0  0  0  0  0
   -4.0187    0.6700   -0.0548 N   0  0  0  0  0  0  0  0  0  0  0  0
    2.9271    0.8523    0.8601 C   0  0  0  0  0  0  0  0  0  0  0  0
    4.4158    0.5082    0.6308 C   0  0  0  0  0  0  0  0  0  0  0  0
    5.0441    1.1755   -0.6051 C   0  0  0  0  0  0  0  0  0  0  0  0
    5.2982    2.6749   -0.4548 C   0  0  0  0  0  0  0  0  0  0  0  0
    6.0099    3.0524    0.8413 C   0  0  0  0  0  0  0  0  0  0  0  0
    5.4374    2.3606    2.0733 C   0  0  0  0  0  0  0  0  0  0  0  0
    5.2646    0.8569    1.8688 C   0  0  0  0  0  0  0  0  0  0  0  0
    0.4707    0.9886    1.0819 H   0  0  0  0  0  0  0  0  0  0  0  0
    0.3562   -0.7525   -2.2803 H   0  0  0  0  0  0  0  0  0  0  0  0
   -3.7544   -0.6369   -2.6255 H   0  0  0  0  0  0  0  0  0  0  0  0
   -1.8098    1.5228    1.9808 H   0  0  0  0  0  0  0  0  0  0  0  0
   -5.0031    0.6209   -0.2937 H   0  0  0  0  0  0  0  0  0  0  0  0
    2.6325    0.4686    1.8462 H   0  0  0  0  0  0  0  0  0  0  0  0
    2.7743    1.9378    0.8674 H   0  0  0  0  0  0  0  0  0  0  0  0
    4.4805   -0.5785    0.4850 H   0  0  0  0  0  0  0  0  0  0  0  0
    4.4326    1.0026   -1.4968 H   0  0  0  0  0  0  0  0  0  0  0  0
    6.0077    0.6857   -0.8018 H   0  0  0  0  0  0  0  0  0  0  0  0
    4.3475    3.2150   -0.5204 H   0  0  0  0  0  0  0  0  0  0  0  0
    5.9075    3.0176   -1.3011 H   0  0  0  0  0  0  0  0  0  0  0  0
    5.9573    4.1398    0.9782 H   0  0  0  0  0  0  0  0  0  0  0  0
    7.0750    2.8049    0.7541 H   0  0  0  0  0  0  0  0  0  0  0  0
    4.4763    2.8150    2.3386 H   0  0  0  0  0  0  0  0  0  0  0  0
    6.1082    2.5353    2.9236 H   0  0  0  0  0  0  0  0  0  0  0  0
    4.8244    0.4140    2.7697 H   0  0  0  0  0  0  0  0  0  0  0  0
    6.2579    0.4024    1.7563 H   0  0  0  0  0  0  0  0  0  0  0  0
  1  2  2  0  0  0  0
  2  3  1  0  0  0  0
  2 13  1  0  0  0  0
  3  4  1  0  0  0  0
  3 20  1  0  0  0  0
  4  5  1  0  0  0  0
  4  9  2  0  0  0  0
  5  6  2  0  0  0  0
  5 21  1  0  0  0  0
  6  7  1  0  0  0  0
  7  8  2  0  0  0  0
  7 22  1  0  0  0  0
  8  9  1  0  0  0  0
  8 12  1  0  0  0  0
  9 10  1  0  0  0  0
 10 11  2  0  0  0  0
 10 23  1  0  0  0  0
 11 12  1  0  0  0  0
 12 24  1  0  0  0  0
 13 14  1  0  0  0  0
 13 25  1  0  0  0  0
 13 26  1  0  0  0  0
 14 15  1  0  0  0  0
 14 19  1  0  0  0  0
 14 27  1  0  0  0  0
 15 16  1  0  0  0  0
 15 28  1  0  0  0  0
 15 29  1  0  0  0  0
 16 17  1  0  0  0  0
 16 30  1  0  0  0  0
 16 31  1  0  0  0  0
 17 18  1  0  0  0  0
 17 32  1  0  0  0  0
 17 33  1  0  0  0  0
 18 19  1  0  0  0  0
 18 34  1  0  0  0  0
 18 35  1  0  0  0  0
 19 36  1  0  0  0  0
 19 37  1  0  0  0  0
M  END
$$$$
