SPE_0045
 OpenBabel04152010003D

 37 39  0  0  0  0  0  0  0  0999 V2000
    2.2808    0.5818   -0.9855 O   0  0  0  0  0  0  0  0  0  0  0  0
    1.9485    0.2033    0.1310 C   0  0  0  0  0  0  0  0  0  0  0  0
    0.6457    0.0869    0.5896 N   0  0  0  0  0  0  0  0  0  0  0  0
   -0.5514    0.4217   -0.0775 C   0  0  0  0  0  0  0  0  0  0  0  0
   -0.6839    0.9969   -1.3358 C   0  0  0  0  0  0  0  0  0  0  0  0
   -1.8722    1.3277   -1.9222 N   0  0  0  0  0  0  0  0  0  0  0  0
   -3.0345    1.0940   -1.2674 C   0  0  0  0  0  0  0  0  0  0  0  0
   -2.9759    0.5118   -0.0142 C   0  0  0  0  0  0  0  0  0  0  0  0
   -1.7684    0.1762    0.5870 C   0  0  0  0  0  0  0  0  0  0  0  0
   -1.9929   -0.3854    1.8300 N   0  0  0  0  0  0  0  0  0  0  0  0
   -3.2945   -0.3944    1.9788 C   0  0  0  0  0  0  0  0  0  0  0  0
   -3.9346    0.1429    0.8949 N   0  0  0  0  0  0  0  0  0  0  0  0
    2.9455   -0.2017    1.2224 C   0  0  0  0  0  0  0  0  0  0  0  0
    4.4354   -0.2680    0.8237 C   0  0  0  0  0  0  0  0  0  0  0  0
    5.0909    1.0955    0.5516 C   0  0  0  0  0  0  0  0  0  0  0  0
    5.3198    1.9497    1.7986 C   0  0  0  0  0  0  0  0  0  0  0  0
    5.9622    1.2001    2.9636 C   0  0  0  0  0  0  0  0  0  0  0  0
    5.3840   -0.1910    3.1987 C   0  0  0  0  0  0  0  0  0  0  0  0
    5.2578   -0.9961    1.9064 C   0  0  0  0  0  0  0  0  0  0  0  0
    0.4933   -0.2989    1.5177 H   0  0  0  0  0  0  0  0  0  0  0  0
    0.1828    1.2330   -1.9459 H   0  0  0  0  0  0  0  0  0  0  0  0
   -3.9544    1.3778   -1.7641 H   0  0  0  0  0  0  0  0  0  0  0  0
   -3.8302   -0.7741    2.8392 H   0  0  0  0  0  0  0  0  0  0  0  0
   -4.9338    0.2395    0.7862 H   0  0  0  0  0  0  0  0  0  0  0  0
    2.6411   -1.2050    1.5531 H   0  0  0  0  0  0  0  0  0  0  0  0
    2.8001    0.4800    2.0674 H   0  0  0  0  0  0  0  0  0  0  0  0
    4.5046   -0.8583   -0.0997 H   0  0  0  0  0  0  0  0  0  0  0  0
    4.5083    1.6690   -0.1767 H   0  0  0  0  0  0  0  0  0  0  0  0
    6.0672    0.9142    0.0809 H   0  0  0  0  0  0  0  0  0  0  0  0
    4.3668    2.3809    2.1236 H   0  0  0  0  0  0  0  0  0  0  0  0
    5.9655    2.7967    1.5322 H   0  0  0  0  0  0  0  0  0  0  0  0
    5.8531    1.7968    3.8783 H   0  0  0  0  0  0  0  0  0  0  0  0
    7.0406    1.1110    2.7843 H   0  0  0  0  0  0  0  0  0  0  0  0
    4.4056   -0.1060    3.6847 H   0  0  0  0  0  0  0  0  0  0  0  0
    6.0297   -0.7314    3.9022 H   0  0  0  0  0  0  0  0  0  0  0  0
    4.8150   -1.9740    2.1282 H   0  0  0  0  0  0  0  0  0  0  0  0
    6.2650   -1.1948    1.5168 H   0  0  0  0  0  0  0  0  0  0  0  0
  1  2  2  0  0  0  0
  2  3  1  0  0  0  0
  2 13  1  0  0  0  0
  3  4  1  0  0  0  0
  3 20  1  0  0  0  0
  4  5  1  0  0  0  0
  4  9  2  0  0  0  0
  5  6  2  0  0  0  0
  5 21  1  0  0  0  0
  6  7  1  0  0  0  0
  7  8  2  0  0  0  0
  7 22  1  0  0  0  0
  8  9  1  0  0  0  0
  8 12  1  0  0  0  0
  9 10  1  0  0  0  0
 10 11  2  0  0  0  0
 11 12  1  0  0  0  0
 11 23  1  0  0  0  0
 12 24  1  0  0  0  0
 13 14  1  0  0  0  0
 13 25  1  0  0  0  0
 13 26  1  0  0  0  0
 14 15  1  0  0  0  0
 14 19  1  0  0  0  0
 14 27  1  0  0  0  0
 15 16  1  0  0  0  0
 15 28  1  0  0  0  0
 15 29  1  0  0  0  0
 16 17  1  0  0  0  0
 16 30  1  0  0  0  0
 16 31  1  0  0  0  0
 17 18  1  0  0  0  0
 17 32  1  0  0  0  0
 17 33  1  0  0  0  0
 18 19  1  0  0  0  0
 18 34  1  0  0  0  0
 18 35  1  0  0  0  0
 19 36  1  0  0  0  0
 19 37  1  0  0  0  0
M  END
$$$$
