SPE_0039
 OpenBabel04152009593D

 42 43  0  0  0  0  0  0  0  0999 V2000
    0.9963   -0.2859    0.7484 O   0  0  0  0  0  0  0  0  0  0  0  0
    2.0375   -0.1627    0.1028 C   0  0  0  0  0  0  0  0  0  0  0  0
    2.4099    0.9690   -0.6167 N   0  0  0  0  0  0  0  0  0  0  0  0
    1.6015    2.1059   -0.8750 C   0  0  0  0  0  0  0  0  0  0  0  0
    0.2401    2.1773   -0.6119 C   0  0  0  0  0  0  0  0  0  0  0  0
   -0.5306    3.2391   -0.9346 N   0  0  0  0  0  0  0  0  0  0  0  0
    0.0896    4.2825   -1.5418 C   0  0  0  0  0  0  0  0  0  0  0  0
    1.4558    4.3783   -1.8408 C   0  0  0  0  0  0  0  0  0  0  0  0
    2.1928    3.2303   -1.4888 C   0  0  0  0  0  0  0  0  0  0  0  0
    2.0066    5.4823   -2.4949 N   0  0  0  0  0  0  0  0  0  0  0  0
    1.4031    6.8122   -2.3469 C   0  0  0  0  0  0  0  0  0  0  0  0
    3.4164    5.5274   -2.8767 C   0  0  0  0  0  0  0  0  0  0  0  0
    3.0854   -1.2796   -0.0003 C   0  0  0  0  0  0  0  0  0  0  0  0
    2.8256   -2.4988    0.9124 C   0  0  0  0  0  0  0  0  0  0  0  0
    1.6103   -3.3492    0.5014 C   0  0  0  0  0  0  0  0  0  0  0  0
    1.8360   -4.1925   -0.7513 C   0  0  0  0  0  0  0  0  0  0  0  0
    3.0995   -5.0415   -0.6714 C   0  0  0  0  0  0  0  0  0  0  0  0
    4.3239   -4.2425   -0.2389 C   0  0  0  0  0  0  0  0  0  0  0  0
    4.0687   -3.4045    1.0132 C   0  0  0  0  0  0  0  0  0  0  0  0
    3.3571    1.0048   -0.9677 H   0  0  0  0  0  0  0  0  0  0  0  0
   -0.3126    1.3640   -0.1550 H   0  0  0  0  0  0  0  0  0  0  0  0
   -0.6098    5.0611   -1.8267 H   0  0  0  0  0  0  0  0  0  0  0  0
    3.2591    3.1955   -1.6821 H   0  0  0  0  0  0  0  0  0  0  0  0
    0.3562    6.8183   -2.0376 H   0  0  0  0  0  0  0  0  0  0  0  0
    1.4480    7.3416   -3.3056 H   0  0  0  0  0  0  0  0  0  0  0  0
    1.9631    7.4006   -1.6109 H   0  0  0  0  0  0  0  0  0  0  0  0
    3.8199    4.5563   -3.1740 H   0  0  0  0  0  0  0  0  0  0  0  0
    4.0240    5.9394   -2.0632 H   0  0  0  0  0  0  0  0  0  0  0  0
    3.5391    6.1804   -3.7501 H   0  0  0  0  0  0  0  0  0  0  0  0
    4.0483   -0.8313    0.2803 H   0  0  0  0  0  0  0  0  0  0  0  0
    3.1559   -1.5827   -1.0503 H   0  0  0  0  0  0  0  0  0  0  0  0
    2.6263   -2.1090    1.9197 H   0  0  0  0  0  0  0  0  0  0  0  0
    0.7224   -2.7270    0.3570 H   0  0  0  0  0  0  0  0  0  0  0  0
    1.3710   -4.0268    1.3326 H   0  0  0  0  0  0  0  0  0  0  0  0
    1.8832   -3.5428   -1.6321 H   0  0  0  0  0  0  0  0  0  0  0  0
    0.9728   -4.8538   -0.8973 H   0  0  0  0  0  0  0  0  0  0  0  0
    3.2904   -5.5015   -1.6486 H   0  0  0  0  0  0  0  0  0  0  0  0
    2.9377   -5.8663    0.0337 H   0  0  0  0  0  0  0  0  0  0  0  0
    4.6483   -3.5940   -1.0604 H   0  0  0  0  0  0  0  0  0  0  0  0
    5.1504   -4.9374   -0.0446 H   0  0  0  0  0  0  0  0  0  0  0  0
    4.9597   -2.8057    1.2370 H   0  0  0  0  0  0  0  0  0  0  0  0
    3.9361   -4.0851    1.8644 H   0  0  0  0  0  0  0  0  0  0  0  0
  1  2  2  0  0  0  0
  2  3  1  0  0  0  0
  2 13  1  0  0  0  0
  3  4  1  0  0  0  0
  3 20  1  0  0  0  0
  4  5  1  0  0  0  0
  4  9  2  0  0  0  0
  5  6  2  0  0  0  0
  5 21  1  0  0  0  0
  6  7  1  0  0  0  0
  7  8  2  0  0  0  0
  7 22  1  0  0  0  0
  8  9  1  0  0  0  0
  8 10  1  0  0  0  0
  9 23  1  0  0  0  0
 10 11  1  0  0  0  0
 10 12  1  0  0  0  0
 11 24  1  0  0  0  0
 11 25  1  0  0  0  0
 11 26  1  0  0  0  0
 12 27  1  0  0  0  0
 12 28  1  0  0  0  0
 12 29  1  0  0  0  0
 13 14  1  0  0  0  0
 13 30  1  0  0  0  0
 13 31  1  0  0  0  0
 14 15  1  0  0  0  0
 14 19  1  0  0  0  0
 14 32  1  0  0  0  0
 15 16  1  0  0  0  0
 15 33  1  0  0  0  0
 15 34  1  0  0  0  0
 16 17  1  0  0  0  0
 16 35  1  0  0  0  0
 16 36  1  0  0  0  0
 17 18  1  0  0  0  0
 17 37  1  0  0  0  0
 17 38  1  0  0  0  0
 18 19  1  0  0  0  0
 18 39  1  0  0  0  0
 18 40  1  0  0  0  0
 19 41  1  0  0  0  0
 19 42  1  0  0  0  0
M  END
$$$$
