SPE_0044
 OpenBabel04152010003D

 37 39  0  0  0  0  0  0  0  0999 V2000
    0.8535    0.6537    0.5190 O   0  0  0  0  0  0  0  0  0  0  0  0
    1.9334    0.2528    0.0878 C   0  0  0  0  0  0  0  0  0  0  0  0
    2.2928    0.2655   -1.2465 N   0  0  0  0  0  0  0  0  0  0  0  0
    1.5394    0.7194   -2.3286 C   0  0  0  0  0  0  0  0  0  0  0  0
    0.2411    1.1171   -2.2695 C   0  0  0  0  0  0  0  0  0  0  0  0
   -0.5149    1.5781   -3.3453 N   0  0  0  0  0  0  0  0  0  0  0  0
    0.0635    1.6427   -4.5116 C   0  0  0  0  0  0  0  0  0  0  0  0
    1.4243    1.2352   -4.6913 C   0  0  0  0  0  0  0  0  0  0  0  0
    2.1263    0.7646   -3.6063 N   0  0  0  0  0  0  0  0  0  0  0  0
    3.3679    0.4186   -4.0842 C   0  0  0  0  0  0  0  0  0  0  0  0
    3.3489    0.7381   -5.4260 C   0  0  0  0  0  0  0  0  0  0  0  0
    2.1315    1.2471   -5.7987 N   0  0  0  0  0  0  0  0  0  0  0  0
    2.9065   -0.4162    1.0623 C   0  0  0  0  0  0  0  0  0  0  0  0
    4.4277   -0.3350    0.8291 C   0  0  0  0  0  0  0  0  0  0  0  0
    5.0082    1.0795    0.9724 C   0  0  0  0  0  0  0  0  0  0  0  0
    5.0445    1.6002    2.4103 C   0  0  0  0  0  0  0  0  0  0  0  0
    5.6316    0.6124    3.4173 C   0  0  0  0  0  0  0  0  0  0  0  0
    5.1298   -0.8164    3.2449 C   0  0  0  0  0  0  0  0  0  0  0  0
    5.1785   -1.2789    1.7909 C   0  0  0  0  0  0  0  0  0  0  0  0
    3.2317   -0.0336   -1.4637 H   0  0  0  0  0  0  0  0  0  0  0  0
   -0.3207    1.0989   -1.3416 H   0  0  0  0  0  0  0  0  0  0  0  0
   -0.5012    2.0132   -5.3827 H   0  0  0  0  0  0  0  0  0  0  0  0
    4.1391   -0.0130   -3.4657 H   0  0  0  0  0  0  0  0  0  0  0  0
    4.1477    0.6202   -6.1479 H   0  0  0  0  0  0  0  0  0  0  0  0
    2.6076   -1.4720    1.0942 H   0  0  0  0  0  0  0  0  0  0  0  0
    2.6725    0.0030    2.0489 H   0  0  0  0  0  0  0  0  0  0  0  0
    4.6436   -0.6860   -0.1865 H   0  0  0  0  0  0  0  0  0  0  0  0
    4.4576    1.7856    0.3412 H   0  0  0  0  0  0  0  0  0  0  0  0
    6.0377    1.0668    0.5889 H   0  0  0  0  0  0  0  0  0  0  0  0
    4.0322    1.8789    2.7224 H   0  0  0  0  0  0  0  0  0  0  0  0
    5.6402    2.5220    2.4386 H   0  0  0  0  0  0  0  0  0  0  0  0
    5.4026    0.9558    4.4340 H   0  0  0  0  0  0  0  0  0  0  0  0
    6.7250    0.6167    3.3316 H   0  0  0  0  0  0  0  0  0  0  0  0
    4.1061   -0.8973    3.6301 H   0  0  0  0  0  0  0  0  0  0  0  0
    5.7404   -1.4888    3.8607 H   0  0  0  0  0  0  0  0  0  0  0  0
    4.7737   -2.2952    1.7166 H   0  0  0  0  0  0  0  0  0  0  0  0
    6.2289   -1.3417    1.4781 H   0  0  0  0  0  0  0  0  0  0  0  0
  1  2  2  0  0  0  0
  2  3  1  0  0  0  0
  2 13  1  0  0  0  0
  3  4  1  0  0  0  0
  3 20  1  0  0  0  0
  4  5  2  0  0  0  0
  4  9  1  0  0  0  0
  5  6  1  0  0  0  0
  5 21  1  0  0  0  0
  6  7  2  0  0  0  0
  7  8  1  0  0  0  0
  7 22  1  0  0  0  0
  8  9  1  0  0  0  0
  8 12  2  0  0  0  0
  9 10  1  0  0  0  0
 10 11  2  0  0  0  0
 10 23  1  0  0  0  0
 11 12  1  0  0  0  0
 11 24  1  0  0  0  0
 13 14  1  0  0  0  0
 13 25  1  0  0  0  0
 13 26  1  0  0  0  0
 14 15  1  0  0  0  0
 14 19  1  0  0  0  0
 14 27  1  0  0  0  0
 15 16  1  0  0  0  0
 15 28  1  0  0  0  0
 15 29  1  0  0  0  0
 16 17  1  0  0  0  0
 16 30  1  0  0  0  0
 16 31  1  0  0  0  0
 17 18  1  0  0  0  0
 17 32  1  0  0  0  0
 17 33  1  0  0  0  0
 18 19  1  0  0  0  0
 18 34  1  0  0  0  0
 18 35  1  0  0  0  0
 19 36  1  0  0  0  0
 19 37  1  0  0  0  0
M  END
$$$$
