SPE_0047
 OpenBabel04152010003D

 38 40  0  0  0  0  0  0  0  0999 V2000
    1.2107   -0.5819   -0.2375 O   0  0  0  0  0  0  0  0  0  0  0  0
    2.3245   -0.1362    0.0527 C   0  0  0  0  0  0  0  0  0  0  0  0
    2.8096   -0.0713    1.3336 N   0  0  0  0  0  0  0  0  0  0  0  0
    2.1048   -0.5506    2.4748 C   0  0  0  0  0  0  0  0  0  0  0  0
    1.0370   -1.4361    2.4056 C   0  0  0  0  0  0  0  0  0  0  0  0
    0.3141   -1.8227    3.4800 N   0  0  0  0  0  0  0  0  0  0  0  0
    0.6818   -1.2806    4.6624 C   0  0  0  0  0  0  0  0  0  0  0  0
    1.7297   -0.4045    4.8628 C   0  0  0  0  0  0  0  0  0  0  0  0
    2.4859   -0.0466    3.7175 C   0  0  0  0  0  0  0  0  0  0  0  0
    3.5295    0.8124    3.8166 N   0  0  0  0  0  0  0  0  0  0  0  0
    3.7883    1.3240    5.0401 C   0  0  0  0  0  0  0  0  0  0  0  0
    3.0346    0.9876    6.1489 C   0  0  0  0  0  0  0  0  0  0  0  0
    2.0103    0.1147    6.0813 N   0  0  0  0  0  0  0  0  0  0  0  0
    3.1468    0.5114   -1.0444 C   0  0  0  0  0  0  0  0  0  0  0  0
    4.6846    0.4301   -0.9808 C   0  0  0  0  0  0  0  0  0  0  0  0
    5.1882   -1.0214   -0.9838 C   0  0  0  0  0  0  0  0  0  0  0  0
    5.0269   -1.7134   -2.3362 C   0  0  0  0  0  0  0  0  0  0  0  0
    5.6602   -0.9041   -3.4638 C   0  0  0  0  0  0  0  0  0  0  0  0
    5.1363    0.5277   -3.4989 C   0  0  0  0  0  0  0  0  0  0  0  0
    5.3175    1.2172   -2.1483 C   0  0  0  0  0  0  0  0  0  0  0  0
    3.5399    0.5988    1.5605 H   0  0  0  0  0  0  0  0  0  0  0  0
    0.7069   -1.8787    1.4711 H   0  0  0  0  0  0  0  0  0  0  0  0
    0.0616   -1.5797    5.5048 H   0  0  0  0  0  0  0  0  0  0  0  0
    4.6108    2.0239    5.1053 H   0  0  0  0  0  0  0  0  0  0  0  0
    3.2323    1.4210    7.1219 H   0  0  0  0  0  0  0  0  0  0  0  0
    2.8210    1.5583   -1.0889 H   0  0  0  0  0  0  0  0  0  0  0  0
    2.7969    0.0381   -1.9693 H   0  0  0  0  0  0  0  0  0  0  0  0
    5.0432    0.8988   -0.0580 H   0  0  0  0  0  0  0  0  0  0  0  0
    4.6770   -1.6002   -0.2078 H   0  0  0  0  0  0  0  0  0  0  0  0
    6.2526   -1.0217   -0.7160 H   0  0  0  0  0  0  0  0  0  0  0  0
    3.9646   -1.8731   -2.5537 H   0  0  0  0  0  0  0  0  0  0  0  0
    5.4888   -2.7059   -2.2933 H   0  0  0  0  0  0  0  0  0  0  0  0
    5.4630   -1.3926   -4.4244 H   0  0  0  0  0  0  0  0  0  0  0  0
    6.7492   -0.8877   -3.3311 H   0  0  0  0  0  0  0  0  0  0  0  0
    4.0770    0.5265   -3.7807 H   0  0  0  0  0  0  0  0  0  0  0  0
    5.6654    1.0938   -4.2737 H   0  0  0  0  0  0  0  0  0  0  0  0
    4.9026    2.2323   -2.1933 H   0  0  0  0  0  0  0  0  0  0  0  0
    6.3923    1.3339   -1.9563 H   0  0  0  0  0  0  0  0  0  0  0  0
  1  2  2  0  0  0  0
  2  3  1  0  0  0  0
  2 14  1  0  0  0  0
  3  4  1  0  0  0  0
  3 21  1  0  0  0  0
  4  5  1  0  0  0  0
  4  9  2  0  0  0  0
  5  6  2  0  0  0  0
  5 22  1  0  0  0  0
  6  7  1  0  0  0  0
  7  8  2  0  0  0  0
  7 23  1  0  0  0  0
  8  9  1  0  0  0  0
  8 13  1  0  0  0  0
  9 10  1  0  0  0  0
 10 11  2  0  0  0  0
 11 12  1  0  0  0  0
 11 24  1  0  0  0  0
 12 13  2  0  0  0  0
 12 25  1  0  0  0  0
 14 15  1  0  0  0  0
 14 26  1  0  0  0  0
 14 27  1  0  0  0  0
 15 16  1  0  0  0  0
 15 20  1  0  0  0  0
 15 28  1  0  0  0  0
 16 17  1  0  0  0  0
 16 29  1  0  0  0  0
 16 30  1  0  0  0  0
 17 18  1  0  0  0  0
 17 31  1  0  0  0  0
 17 32  1  0  0  0  0
 18 19  1  0  0  0  0
 18 33  1  0  0  0  0
 18 34  1  0  0  0  0
 19 20  1  0  0  0  0
 19 35  1  0  0  0  0
 19 36  1  0  0  0  0
 20 37  1  0  0  0  0
 20 38  1  0  0  0  0
M  END
$$$$
