SPE_0038
 OpenBabel04152009593D

 39 40  0  0  0  0  0  0  0  0999 V2000
    6.1380   -0.3072    3.9187 C   0  0  0  0  0  0  0  0  0  0  0  0
    6.1752   -1.3329    2.8800 N   0  0  0  0  0  0  0  0  0  0  0  0
    4.9441   -1.6426    2.2767 C   0  0  0  0  0  0  0  0  0  0  0  0
    3.9559   -0.6930    2.0072 C   0  0  0  0  0  0  0  0  0  0  0  0
    2.7740   -0.9515    1.4072 N   0  0  0  0  0  0  0  0  0  0  0  0
    2.5528   -2.2337    1.0448 C   0  0  0  0  0  0  0  0  0  0  0  0
    3.4659   -3.2712    1.2237 C   0  0  0  0  0  0  0  0  0  0  0  0
    4.6986   -2.9452    1.8048 C   0  0  0  0  0  0  0  0  0  0  0  0
    3.2034   -4.6158    0.8527 N   0  0  0  0  0  0  0  0  0  0  0  0
    1.9376   -5.1237    0.6152 C   0  0  0  0  0  0  0  0  0  0  0  0
    0.8916   -4.5115    0.7979 O   0  0  0  0  0  0  0  0  0  0  0  0
    1.9229   -6.5768    0.1655 C   0  0  0  0  0  0  0  0  0  0  0  0
    0.6755   -6.8941   -0.6934 C   0  0  0  0  0  0  0  0  0  0  0  0
    0.6418   -6.0920   -2.0083 C   0  0  0  0  0  0  0  0  0  0  0  0
    1.7243   -6.5356   -2.9873 C   0  0  0  0  0  0  0  0  0  0  0  0
    1.6178   -8.0275   -3.2859 C   0  0  0  0  0  0  0  0  0  0  0  0
    1.6080   -8.8748   -2.0154 C   0  0  0  0  0  0  0  0  0  0  0  0
    0.5654   -8.3952   -1.0067 C   0  0  0  0  0  0  0  0  0  0  0  0
    7.1196   -0.2414    4.3975 H   0  0  0  0  0  0  0  0  0  0  0  0
    5.4046   -0.5576    4.6940 H   0  0  0  0  0  0  0  0  0  0  0  0
    5.9119    0.6824    3.5089 H   0  0  0  0  0  0  0  0  0  0  0  0
    6.6692   -2.1650    3.1894 H   0  0  0  0  0  0  0  0  0  0  0  0
    4.0866    0.3523    2.2681 H   0  0  0  0  0  0  0  0  0  0  0  0
    1.5945   -2.3814    0.5582 H   0  0  0  0  0  0  0  0  0  0  0  0
    5.4559   -3.7119    1.9412 H   0  0  0  0  0  0  0  0  0  0  0  0
    3.9797   -5.2649    0.8868 H   0  0  0  0  0  0  0  0  0  0  0  0
    1.8999   -7.1857    1.0773 H   0  0  0  0  0  0  0  0  0  0  0  0
    2.8499   -6.8162   -0.3636 H   0  0  0  0  0  0  0  0  0  0  0  0
   -0.2147   -6.6171   -0.1130 H   0  0  0  0  0  0  0  0  0  0  0  0
    0.7355   -5.0176   -1.8183 H   0  0  0  0  0  0  0  0  0  0  0  0
   -0.3400   -6.2315   -2.4806 H   0  0  0  0  0  0  0  0  0  0  0  0
    2.7165   -6.3074   -2.5813 H   0  0  0  0  0  0  0  0  0  0  0  0
    1.6308   -5.9665   -3.9190 H   0  0  0  0  0  0  0  0  0  0  0  0
    2.4516   -8.3347   -3.9270 H   0  0  0  0  0  0  0  0  0  0  0  0
    0.6966   -8.2142   -3.8516 H   0  0  0  0  0  0  0  0  0  0  0  0
    2.6024   -8.8563   -1.5552 H   0  0  0  0  0  0  0  0  0  0  0  0
    1.4043   -9.9192   -2.2789 H   0  0  0  0  0  0  0  0  0  0  0  0
    0.6430   -8.9833   -0.0848 H   0  0  0  0  0  0  0  0  0  0  0  0
   -0.4342   -8.5948   -1.4164 H   0  0  0  0  0  0  0  0  0  0  0  0
  1  2  1  0  0  0  0
  1 19  1  0  0  0  0
  1 20  1  0  0  0  0
  1 21  1  0  0  0  0
  2  3  1  0  0  0  0
  2 22  1  0  0  0  0
  3  4  1  0  0  0  0
  3  8  2  0  0  0  0
  4  5  2  0  0  0  0
  4 23  1  0  0  0  0
  5  6  1  0  0  0  0
  6  7  2  0  0  0  0
  6 24  1  0  0  0  0
  7  8  1  0  0  0  0
  7  9  1  0  0  0  0
  8 25  1  0  0  0  0
  9 10  1  0  0  0  0
  9 26  1  0  0  0  0
 10 11  2  0  0  0  0
 10 12  1  0  0  0  0
 12 13  1  0  0  0  0
 12 27  1  0  0  0  0
 12 28  1  0  0  0  0
 13 14  1  0  0  0  0
 13 18  1  0  0  0  0
 13 29  1  0  0  0  0
 14 15  1  0  0  0  0
 14 30  1  0  0  0  0
 14 31  1  0  0  0  0
 15 16  1  0  0  0  0
 15 32  1  0  0  0  0
 15 33  1  0  0  0  0
 16 17  1  0  0  0  0
 16 34  1  0  0  0  0
 16 35  1  0  0  0  0
 17 18  1  0  0  0  0
 17 36  1  0  0  0  0
 17 37  1  0  0  0  0
 18 38  1  0  0  0  0
 18 39  1  0  0  0  0
M  END
$$$$
