SPE_0040
 OpenBabel04152009593D

 38 40  0  0  0  0  0  0  0  0999 V2000
    1.4710   -0.8637    0.5109 O   0  0  0  0  0  0  0  0  0  0  0  0
    2.1453    0.0514    0.0460 C   0  0  0  0  0  0  0  0  0  0  0  0
    2.2187    1.3372    0.5585 N   0  0  0  0  0  0  0  0  0  0  0  0
    1.5792    1.7729    1.7615 C   0  0  0  0  0  0  0  0  0  0  0  0
    1.0588    0.8709    2.6903 C   0  0  0  0  0  0  0  0  0  0  0  0
    0.4495    1.2236    3.8442 N   0  0  0  0  0  0  0  0  0  0  0  0
    0.3451    2.5483    4.0887 C   0  0  0  0  0  0  0  0  0  0  0  0
    0.8192    3.5568    3.2725 C   0  0  0  0  0  0  0  0  0  0  0  0
    1.4545    3.1615    2.0828 C   0  0  0  0  0  0  0  0  0  0  0  0
    1.8879    4.2480    1.3191 C   0  0  0  0  0  0  0  0  0  0  0  0
    1.7399    5.5495    1.6556 N   0  0  0  0  0  0  0  0  0  0  0  0
    1.1200    5.7771    2.8175 C   0  0  0  0  0  0  0  0  0  0  0  0
    0.6511    4.8390    3.6439 N   0  0  0  0  0  0  0  0  0  0  0  0
    2.9473   -0.1889   -1.2200 C   0  0  0  0  0  0  0  0  0  0  0  0
    4.4751   -0.2152   -1.0342 C   0  0  0  0  0  0  0  0  0  0  0  0
    4.9564   -1.2083    0.0391 C   0  0  0  0  0  0  0  0  0  0  0  0
    4.7935   -2.6696   -0.3737 C   0  0  0  0  0  0  0  0  0  0  0  0
    5.4663   -2.9576   -1.7129 C   0  0  0  0  0  0  0  0  0  0  0  0
    5.0011   -1.9968   -2.8020 C   0  0  0  0  0  0  0  0  0  0  0  0
    5.1644   -0.5350   -2.3765 C   0  0  0  0  0  0  0  0  0  0  0  0
    2.6767    2.0303   -0.0175 H   0  0  0  0  0  0  0  0  0  0  0  0
    1.1301   -0.2049    2.5714 H   0  0  0  0  0  0  0  0  0  0  0  0
   -0.1620    2.7957    5.0185 H   0  0  0  0  0  0  0  0  0  0  0  0
    2.3832    4.1135    0.3638 H   0  0  0  0  0  0  0  0  0  0  0  0
    0.9812    6.8115    3.1194 H   0  0  0  0  0  0  0  0  0  0  0  0
    2.6701    0.5794   -1.9519 H   0  0  0  0  0  0  0  0  0  0  0  0
    2.5932   -1.1402   -1.6343 H   0  0  0  0  0  0  0  0  0  0  0  0
    4.7899    0.7889   -0.7205 H   0  0  0  0  0  0  0  0  0  0  0  0
    4.4431   -1.0350    0.9910 H   0  0  0  0  0  0  0  0  0  0  0  0
    6.0218   -1.0212    0.2317 H   0  0  0  0  0  0  0  0  0  0  0  0
    3.7301   -2.9267   -0.4314 H   0  0  0  0  0  0  0  0  0  0  0  0
    5.2317   -3.3170    0.3959 H   0  0  0  0  0  0  0  0  0  0  0  0
    5.2577   -3.9905   -2.0165 H   0  0  0  0  0  0  0  0  0  0  0  0
    6.5545   -2.8752   -1.5993 H   0  0  0  0  0  0  0  0  0  0  0  0
    3.9532   -2.2045   -3.0478 H   0  0  0  0  0  0  0  0  0  0  0  0
    5.5735   -2.1785   -3.7187 H   0  0  0  0  0  0  0  0  0  0  0  0
    4.7778    0.1196   -3.1665 H   0  0  0  0  0  0  0  0  0  0  0  0
    6.2361   -0.3154   -2.2867 H   0  0  0  0  0  0  0  0  0  0  0  0
  1  2  2  0  0  0  0
  2  3  1  0  0  0  0
  2 14  1  0  0  0  0
  3  4  1  0  0  0  0
  3 21  1  0  0  0  0
  4  5  1  0  0  0  0
  4  9  2  0  0  0  0
  5  6  2  0  0  0  0
  5 22  1  0  0  0  0
  6  7  1  0  0  0  0
  7  8  2  0  0  0  0
  7 23  1  0  0  0  0
  8  9  1  0  0  0  0
  8 13  1  0  0  0  0
  9 10  1  0  0  0  0
 10 11  2  0  0  0  0
 10 24  1  0  0  0  0
 11 12  1  0  0  0  0
 12 13  2  0  0  0  0
 12 25  1  0  0  0  0
 14 15  1  0  0  0  0
 14 26  1  0  0  0  0
 14 27  1  0  0  0  0
 15 16  1  0  0  0  0
 15 20  1  0  0  0  0
 15 28  1  0  0  0  0
 16 17  1  0  0  0  0
 16 29  1  0  0  0  0
 16 30  1  0  0  0  0
 17 18  1  0  0  0  0
 17 31  1  0  0  0  0
 17 32  1  0  0  0  0
 18 19  1  0  0  0  0
 18 33  1  0  0  0  0
 18 34  1  0  0  0  0
 19 20  1  0  0  0  0
 19 35  1  0  0  0  0
 19 36  1  0  0  0  0
 20 37  1  0  0  0  0
 20 38  1  0  0  0  0
M  END
$$$$
