@<TRIPOS>MOLECULE
T18
   48    50     1     0     0
SMALL
bcc


@<TRIPOS>ATOM
      1 O1           8.9350     1.3520    21.1120 o          1 T18      -0.597100
      2 N1           9.7200    -0.1520    22.6250 ns         1 T18      -0.457100
      3 N3           6.1940     0.1490    17.8880 na         1 T18      -0.303100
      4 N4           4.2370     1.4600    18.6150 nb         1 T18      -0.661000
      5 C1           8.8960     0.2060    21.5670 c          1 T18       0.633100
      6 C2L          7.9730    -0.8600    21.0130 c3         1 T18       0.128900
      7 C8           7.1040    -0.3150    19.9590 cc         1 T18      -0.164400
      8 C9           7.2400    -0.4750    18.5920 cd         1 T18       0.202400
      9 C10          5.3810     0.7470    18.8560 ca         1 T18       0.436800
     10 C11          3.6320     1.8960    19.7340 ca         1 T18       0.415200
     11 C12          4.0820     1.6620    21.0560 ca         1 T18      -0.261300
     12 C13          5.2380     0.9400    21.2730 ca         1 T18      -0.052000
     13 C14          5.9200     0.4670    20.1490 ca         1 T18      -0.172100
     14 N10          8.7710    -1.9390    20.4700 ns         1 T18      -0.566900
     15 H2L1         7.3270    -1.2900    21.8190 h1         1 T18       0.100700
     16 F1           8.1630    -1.1330    17.9270 f          1 T18      -0.132500
     17 H11          2.7130     2.4810    19.5500 h4         1 T18       0.027100
     18 H12          3.4980     2.0640    21.8940 ha         1 T18       0.148000
     19 H13          5.6150     0.7320    22.2870 ha         1 T18       0.146000
     20 HN3          6.1120     0.2120    16.8780 hn         1 T18       0.323700
     21 H1           9.5590    -1.1200    22.8640 hn         1 T18       0.345500
     22 C2          11.1040     0.0260    22.2400 ca         1 T18      -0.139700
     23 C3          11.8470     1.1830    22.5190 ca         1 T18       0.692200
     24 N9          11.2810     2.1960    23.1730 nu         1 T18      -0.827900
     25 N8          13.1850     1.2730    22.1090 nb         1 T18      -0.732000
     26 C5          13.7800     0.2060    21.4200 ca         1 T18       0.481200
     27 C6          13.0380    -0.9510    21.1410 ca         1 T18      -0.196300
     28 H5          14.8110     0.2750    21.1040 h4         1 T18       0.033100
     29 C16         13.6330    -2.0170    20.4530 cg         1 T18       0.249800
     30 C7          11.7000    -1.0410    21.5510 ca         1 T18      -0.046000
     31 H7          11.1280    -1.9310    21.3360 ha         1 T18       0.152000
     32 N7          14.1750    -2.9860    19.8270 n1         1 T18      -0.376800
     33 H91         10.6220     2.0120    23.9160 hn         1 T18       0.438800
     34 C17         11.6100     3.5600    22.8180 c3         1 T18       0.197800
     35 H171        12.6790     3.7230    22.9540 h1         1 T18       0.053200
     36 H172        11.3450     3.7380    21.7760 h1         1 T18       0.053200
     37 C18         10.8320     4.5190    23.7120 c3         1 T18      -0.109100
     38 H181        11.0790     5.5460    23.4450 hc         1 T18       0.044700
     39 H182         9.7630     4.3560    23.5760 hc         1 T18       0.044700
     40 H183        11.0970     4.3400    24.7540 hc         1 T18       0.044700
     41 H101         9.5880    -1.7320    19.9140 hn         1 T18       0.328500
     42 C19          8.4270    -3.2040    20.7040 c          1 T18       0.668300
     43 C20          9.2000    -4.2500    20.1780 ce         1 T18      -0.241200
     44 O2           7.4250    -3.4580    21.3860 o          1 T18      -0.638100
     45 H201        10.0740    -4.0290    19.5840 ha         1 T18       0.137000
     46 C21          8.8380    -5.5820    20.4240 c2         1 T18      -0.118000
     47 H211         9.4330    -6.3870    20.0200 ha         1 T18       0.133500
     48 H212         7.9640    -5.8030    21.0190 ha         1 T18       0.133500
@<TRIPOS>BOND
     1     1     5 2   
     2     2     5 1   
     3     3     8 1   
     4     3     9 1   
     5     3    20 1   
     6     4     9 ar  
     7     4    10 ar  
     8     5     6 1   
     9     6     7 1   
    10     6    14 1   
    11     6    15 1   
    12     7     8 2   
    13     7    13 1   
    14     8    16 1   
    15     9    13 ar  
    16    10    11 ar  
    17    10    17 1   
    18    11    12 ar  
    19    11    18 1   
    20    12    13 ar  
    21    12    19 1   
    22    21     2 1   
    23    22     2 1   
    24    23    22 ar  
    25    24    23 1   
    26    25    23 ar  
    27    26    25 ar  
    28    27    26 ar  
    29    28    26 1   
    30    29    27 1   
    31    30    27 ar  
    32    30    22 ar  
    33    31    30 1   
    34    32    29 3   
    35    33    24 1   
    36    34    24 1   
    37    35    34 1   
    38    36    34 1   
    39    37    34 1   
    40    38    37 1   
    41    39    37 1   
    42    40    37 1   
    43    41    14 1   
    44    42    14 1   
    45    43    42 1   
    46    44    42 2   
    47    45    43 1   
    48    46    43 2   
    49    47    46 1   
    50    48    46 1   
@<TRIPOS>SUBSTRUCTURE
     1 T18         1 TEMP              0 ****  ****    0 ROOT
