@<TRIPOS>MOLECULE
T17
   46    47     1     0     1 
SMALL
USER_CHARGES
@<TRIPOS>ATOM
  1 O1      8.713000    1.132000   20.727000 o     1 T17    -0.5961 ****
  2 C1      8.173000    0.247000   21.411000 c     1 T17     0.6461 ****
  3 N1      8.869000   -0.472000   22.376000 ns    1 T17    -0.4571 ****
  4 C2     10.221000   -0.089000   22.636000 ca    1 T17    -0.1477 ****
  5 C3     10.461000    0.927000   23.562000 ca    1 T17     0.6972 ****
  6 N8     11.768000    1.327000   23.805000 nb    1 T17    -0.7310 ****
  7 C5     12.819000    0.720000   23.129000 ca    1 T17     0.4852 ****
  8 C6     12.569000   -0.296000   22.216000 ca    1 T17    -0.1963 ****
  9 C7     11.269000   -0.716000   21.960000 ca    1 T17    -0.0420 ****
 10 C2L     6.807000   -0.063000   21.240000 c3    1 T17     0.0870 ****
 11 C8      6.157000    0.487000   20.114000 ca    1 T17    -0.2036 ****
 12 C9      5.003000    1.255000   20.243000 ca    1 T17    -0.1280 ****
 13 C10     4.388000    1.751000   19.079000 ca    1 T17     0.0383 ****
 14 C11     4.961000    1.434000   17.822000 ca    1 T17     0.3672 ****
 15 N3      6.076000    0.701000   17.672000 nb    1 T17    -0.6420 ****
 16 C12     6.659000    0.247000   18.814000 ca    1 T17     0.5485 ****
 17 H1      8.510000   -1.328000   22.797000 hn    1 T17     0.3265 ****
 18 N9      9.454000    1.515000   24.206000 nu    1 T17    -0.8289 ****
 19 H5     13.843000    1.064000   23.294000 h4    1 T17     0.0341 ****
 20 C16    13.632000   -0.894000   21.522000 cg    1 T17     0.2478 ****
 21 H7     11.075000   -1.510000   21.230000 ha    1 T17     0.1510 ****
 22 H9      4.595000    1.485000   21.236000 ha    1 T17     0.1600 ****
 23 N4      3.204000    2.456000   19.158000 nv    1 T17    -0.8182 ****
 24 H11     4.544000    1.821000   16.885000 h4    1 T17     0.0361 ****
 25 F1      7.691000   -0.390000   18.637000 f     1 T17    -0.2422 ****
 26 H41     2.993000    2.930000   20.028000 hn    1 T17     0.4078 ****
 27 H42     2.904000    2.953000   18.330000 hn    1 T17     0.4078 ****
 28 N7     14.597000   -1.437000   20.892000 n1    1 T17    -0.3728 ****
 29 C17     9.183000    2.921000   23.994000 c3    1 T17     0.1988 ****
 30 H91     8.879000    0.980000   24.841000 hn    1 T17     0.4408 ****
 31 C18     7.988000    3.342000   24.843000 c3    1 T17    -0.1101 ****
 32 H172   10.056000    3.506000   24.282000 h1    1 T17     0.0542 ****
 33 H171    8.960000    3.094000   22.942000 h1    1 T17     0.0542 ****
 34 H181    7.784000    4.401000   24.683000 hc    1 T17     0.0460 ****
 35 H182    8.211000    3.169000   25.895000 hc    1 T17     0.0460 ****
 36 H183    7.115000    2.757000   24.556000 hc    1 T17     0.0460 ****
 37 N10     6.696000   -1.503000   21.147000 ns    1 T17    -0.5729 ****
 38 H2L1    6.272000    0.261000   22.132000 h1    1 T17     0.1367 ****
 39 C19     5.514000   -2.093000   21.320000 c     1 T17     0.6653 ****
 40 H101    7.514000   -2.061000   20.949000 hn    1 T17     0.3195 ****
 41 C20     5.406000   -3.488000   21.230000 ce    1 T17    -0.2162 ****
 42 O2      4.510000   -1.408000   21.562000 o     1 T17    -0.5871 ****
 43 C21     6.543000   -4.263000   20.956000 c2    1 T17    -0.1640 ****
 44 H201    4.448000   -3.966000   21.371000 ha    1 T17     0.1600 ****
 45 H211    7.501000   -3.785000   20.816000 ha    1 T17     0.1250 ****
 46 H212    6.460000   -5.337000   20.887000 ha    1 T17     0.1250 ****
@<TRIPOS>BOND
    1     1     2 1
    2     2     3 1
    3     2    10 1
    4     3     4 1
    5     3    17 1
    6     4     5 1
    7     4     9 1
    8     5     6 1
    9     5    18 1
   10     6     7 1
   11     7     8 1
   12     7    19 1
   13     8     9 1
   14     8    20 1
   15     9    21 1
   16    10    11 1
   17    10    37 1
   18    10    38 1
   19    11    12 1
   20    11    16 1
   21    12    13 1
   22    12    22 1
   23    13    14 1
   24    13    23 1
   25    14    15 1
   26    14    24 1
   27    15    16 1
   28    16    25 1
   29    18    29 1
   30    18    30 1
   31    20    28 1
   32    23    26 1
   33    23    27 1
   34    29    31 1
   35    29    32 1
   36    29    33 1
   37    31    34 1
   38    31    35 1
   39    31    36 1
   40    37    39 1
   41    37    40 1
   42    39    41 1
   43    39    42 1
   44    41    43 1
   45    41    44 1
   46    43    45 1
   47    43    46 1
@<TRIPOS>SUBSTRUCTURE
      1  T17              1 ****               0 ****  **** 
