@<TRIPOS>MOLECULE
T19
   48    50     1     0     1 
SMALL
USER_CHARGES
@<TRIPOS>ATOM
  1 O1      8.935000    1.352000   21.112000 o     1 T19    -0.6241 ****
  2 N1      9.720000   -0.152000   22.625000 ns    1 T19    -0.4551 ****
  3 N3      6.194000    0.149000   17.888000 na    1 T19    -0.2841 ****
  4 N4      4.237000    1.460000   18.615000 nb    1 T19    -0.6630 ****
  5 C1      8.896000    0.206000   21.567000 c     1 T19     0.6481 ****
  6 C2L     7.973000   -0.860000   21.013000 c3    1 T19     0.1309 ****
  7 C8      7.104000   -0.315000   19.959000 cc    1 T19    -0.1944 ****
  8 C9      7.240000   -0.475000   18.592000 cd    1 T19    -0.0361 ****
  9 C10     5.381000    0.747000   18.856000 ca    1 T19     0.4148 ****
 10 C11     3.632000    1.896000   19.734000 ca    1 T19     0.4092 ****
 11 C12     4.082000    1.662000   21.056000 ca    1 T19    -0.2643 ****
 12 C13     5.238000    0.940000   21.273000 ca    1 T19    -0.0560 ****
 13 C14     5.920000    0.467000   20.149000 ca    1 T19    -0.1781 ****
 14 N10     8.771000   -1.939000   20.470000 ns    1 T19    -0.5649 ****
 15 H2L1    7.327000   -1.290000   21.819000 h1    1 T19     0.0947 ****
 16 H9      7.907000   -0.950000   18.112000 h4    1 T19     0.2000 ****
 17 H11     2.713000    2.481000   19.550000 h4    1 T19     0.0241 ****
 18 H12     3.498000    2.064000   21.894000 ha    1 T19     0.1450 ****
 19 H13     5.615000    0.732000   22.287000 ha    1 T19     0.1430 ****
 20 HN3     6.112000    0.212000   16.878000 hn    1 T19     0.3147 ****
 21 H1      9.559000   -1.120000   22.864000 hn    1 T19     0.3495 ****
 22 C2     11.104000    0.026000   22.240000 ca    1 T19    -0.1397 ****
 23 C3     11.847000    1.183000   22.519000 ca    1 T19     0.6932 ****
 24 N9     11.281000    2.196000   23.173000 nu    1 T19    -0.8289 ****
 25 N8     13.185000    1.273000   22.109000 nb    1 T19    -0.7330 ****
 26 C5     13.780000    0.206000   21.420000 ca    1 T19     0.4822 ****
 27 C6     13.038000   -0.951000   21.141000 ca    1 T19    -0.1973 ****
 28 H5     14.811000    0.275000   21.104000 h4    1 T19     0.0331 ****
 29 C16    13.633000   -2.017000   20.453000 cg    1 T19     0.2498 ****
 30 C7     11.700000   -1.041000   21.551000 ca    1 T19    -0.0430 ****
 31 H7     11.128000   -1.931000   21.336000 ha    1 T19     0.1530 ****
 32 N7     14.175000   -2.986000   19.827000 n1    1 T19    -0.3768 ****
 33 H91    10.622000    2.012000   23.916000 hn    1 T19     0.4388 ****
 34 C17    11.610000    3.560000   22.818000 c3    1 T19     0.1988 ****
 35 H171   12.679000    3.723000   22.954000 h1    1 T19     0.0532 ****
 36 H172   11.345000    3.738000   21.776000 h1    1 T19     0.0532 ****
 37 C18    10.832000    4.519000   23.712000 c3    1 T19    -0.1091 ****
 38 H181   11.079000    5.546000   23.445000 hc    1 T19     0.0440 ****
 39 H182    9.763000    4.356000   23.576000 hc    1 T19     0.0440 ****
 40 H183   11.097000    4.340000   24.754000 hc    1 T19     0.0440 ****
 41 H101    9.588000   -1.732000   19.914000 hn    1 T19     0.3255 ****
 42 C19     8.427000   -3.204000   20.704000 c     1 T19     0.6633 ****
 43 C20     9.200000   -4.250000   20.178000 ce    1 T19    -0.2412 ****
 44 O2      7.425000   -3.458000   21.386000 o     1 T19    -0.6411 ****
 45 H201   10.074000   -4.029000   19.584000 ha    1 T19     0.1360 ****
 46 C21     8.838000   -5.582000   20.424000 c2    1 T19    -0.1200 ****
 47 H211    9.433000   -6.387000   20.020000 ha    1 T19     0.1330 ****
 48 H212    7.964000   -5.803000   21.019000 ha    1 T19     0.1330 ****
@<TRIPOS>BOND
    1     1     5 1
    2     2     5 1
    3     2    21 1
    4     2    22 1
    5     3     8 1
    6     3     9 1
    7     3    20 1
    8     4     9 1
    9     4    10 1
   10     5     6 1
   11     6     7 1
   12     6    14 1
   13     6    15 1
   14     7     8 1
   15     7    13 1
   16     8    16 1
   17     9    13 1
   18    10    11 1
   19    10    17 1
   20    11    12 1
   21    11    18 1
   22    12    13 1
   23    12    19 1
   24    14    41 1
   25    14    42 1
   26    22    23 1
   27    22    30 1
   28    23    24 1
   29    23    25 1
   30    24    33 1
   31    24    34 1
   32    25    26 1
   33    26    27 1
   34    26    28 1
   35    27    29 1
   36    27    30 1
   37    29    32 1
   38    30    31 1
   39    34    35 1
   40    34    36 1
   41    34    37 1
   42    37    38 1
   43    37    39 1
   44    37    40 1
   45    42    43 1
   46    42    44 1
   47    43    45 1
   48    43    46 1
   49    46    47 1
   50    46    48 1
@<TRIPOS>SUBSTRUCTURE
      1  T19              1 ****               0 ****  **** 
