@<TRIPOS>MOLECULE
T15
   43    44     1     0     0
SMALL
bcc


@<TRIPOS>ATOM
      1 O1           8.7130     1.1320    20.7270 o          1 T15      -0.568100
      2 C1           8.1730     0.2470    21.4110 c          1 T15       0.779100
      3 N1           8.8690    -0.4720    22.3760 ns         1 T15      -0.454100
      4 C2          10.2210    -0.0890    22.6360 ca         1 T15      -0.155700
      5 C3          10.4610     0.9270    23.5620 ca         1 T15       0.700200
      6 N8          11.7680     1.3270    23.8050 nb         1 T15      -0.727000
      7 C5          12.8190     0.7200    23.1290 ca         1 T15       0.489200
      8 C6          12.5690    -0.2960    22.2160 ca         1 T15      -0.190300
      9 C7          11.2690    -0.7160    21.9600 ca         1 T15      -0.038000
     10 N2           6.8070    -0.0630    21.2400 n          1 T15      -0.438600
     11 C8           6.1570     0.4870    20.1140 ca         1 T15      -0.006700
     12 C9           5.0030     1.2550    20.2430 ca         1 T15      -0.172000
     13 C10          4.3880     1.7510    19.0790 ca         1 T15       0.056300
     14 C11          4.9610     1.4340    17.8220 ca         1 T15       0.318200
     15 N3           6.0760     0.7010    17.6720 nb         1 T15      -0.613000
     16 C12          6.6590     0.2470    18.8140 ca         1 T15       0.321200
     17 H1           8.5100    -1.3280    22.7970 hn         1 T15       0.328500
     18 N9           9.4540     1.5150    24.2060 nu         1 T15      -0.827900
     19 H5          13.8430     1.0640    23.2940 h4         1 T15       0.038100
     20 C16         13.6320    -0.8940    21.5220 cg         1 T15       0.242800
     21 H7          11.0750    -1.5100    21.2300 ha         1 T15       0.152000
     22 C19          6.0420    -0.5160    22.2320 c          1 T15       0.673300
     23 H9           4.5950     1.4850    21.2360 ha         1 T15       0.166000
     24 N4           3.2040     2.4560    19.1580 nv         1 T15      -0.818200
     25 H11          4.5440     1.8210    16.8850 h4         1 T15       0.025100
     26 H12          7.4580    -0.2460    18.6770 h4         1 T15       0.023100
     27 H41          2.9930     2.9300    20.0280 hn         1 T15       0.400300
     28 H42          2.9040     2.9530    18.3300 hn         1 T15       0.400300
     29 N7          14.5970    -1.4370    20.8920 n1         1 T15      -0.361800
     30 C17          9.1830     2.9210    23.9940 c3         1 T15       0.195800
     31 H91          8.8790     0.9800    24.8410 hn         1 T15       0.434800
     32 C18          7.9880     3.3420    24.8430 c3         1 T15      -0.111100
     33 H172        10.0560     3.5060    24.2820 h1         1 T15       0.056700
     34 H171         8.9600     3.0940    22.9420 h1         1 T15       0.056700
     35 H181         7.7840     4.4010    24.6830 hc         1 T15       0.045700
     36 H182         8.2110     3.1690    25.8950 hc         1 T15       0.045700
     37 H183         7.1150     2.7570    24.5560 hc         1 T15       0.045700
     38 C20          6.6170    -0.8920    23.4550 ce         1 T15      -0.247200
     39 O2           4.8170    -0.6060    22.0730 o          1 T15      -0.562100
     40 H201         7.6850    -0.8140    23.5960 ha         1 T15       0.148000
     41 C21          5.8050    -1.3680    24.4940 c2         1 T15      -0.121000
     42 H211         4.7370    -1.4450    24.3530 ha         1 T15       0.134000
     43 H212         6.2480    -1.6570    25.4360 ha         1 T15       0.134000
@<TRIPOS>BOND
     1     1     2 2   
     2     2     3 1   
     3     2    10 1   
     4     3     4 1   
     5     3    17 1   
     6     4     5 ar  
     7     4     9 ar  
     8     5     6 ar  
     9     5    18 1   
    10     6     7 ar  
    11     7     8 ar  
    12     7    19 1   
    13     8     9 ar  
    14     8    20 1   
    15     9    21 1   
    16    10    11 1   
    17    10    22 1   
    18    11    12 ar  
    19    11    16 ar  
    20    12    13 ar  
    21    12    23 1   
    22    13    14 ar  
    23    13    24 1   
    24    14    15 ar  
    25    14    25 1   
    26    15    16 ar  
    27    16    26 1   
    28    24    27 1   
    29    24    28 1   
    30    29    20 3   
    31    30    18 1   
    32    31    18 1   
    33    32    30 1   
    34    33    30 1   
    35    34    30 1   
    36    35    32 1   
    37    36    32 1   
    38    37    32 1   
    39    38    22 1   
    40    39    22 2   
    41    40    38 1   
    42    41    38 2   
    43    42    41 1   
    44    43    41 1   
@<TRIPOS>SUBSTRUCTURE
     1 T15         1 TEMP              0 ****  ****    0 ROOT
