@<TRIPOS>MOLECULE
T17
   46    47     1     0     0
SMALL
bcc


@<TRIPOS>ATOM
      1 O1           8.7130     1.1320    20.7270 o          1 T17      -0.596100
      2 C1           8.1730     0.2470    21.4110 c          1 T17       0.646100
      3 N1           8.8690    -0.4720    22.3760 ns         1 T17      -0.457100
      4 C2          10.2210    -0.0890    22.6360 ca         1 T17      -0.147700
      5 C3          10.4610     0.9270    23.5620 ca         1 T17       0.697200
      6 N8          11.7680     1.3270    23.8050 nb         1 T17      -0.731000
      7 C5          12.8190     0.7200    23.1290 ca         1 T17       0.485200
      8 C6          12.5690    -0.2960    22.2160 ca         1 T17      -0.196300
      9 C7          11.2690    -0.7160    21.9600 ca         1 T17      -0.042000
     10 C2L          6.8070    -0.0630    21.2400 c3         1 T17       0.087000
     11 C8           6.1570     0.4870    20.1140 ca         1 T17      -0.203600
     12 C9           5.0030     1.2550    20.2430 ca         1 T17      -0.128000
     13 C10          4.3880     1.7510    19.0790 ca         1 T17       0.038300
     14 C11          4.9610     1.4340    17.8220 ca         1 T17       0.367200
     15 N3           6.0760     0.7010    17.6720 nb         1 T17      -0.642000
     16 C12          6.6590     0.2470    18.8140 ca         1 T17       0.548500
     17 H1           8.5100    -1.3280    22.7970 hn         1 T17       0.326500
     18 N9           9.4540     1.5150    24.2060 nu         1 T17      -0.828900
     19 H5          13.8430     1.0640    23.2940 h4         1 T17       0.034100
     20 C16         13.6320    -0.8940    21.5220 cg         1 T17       0.247800
     21 H7          11.0750    -1.5100    21.2300 ha         1 T17       0.151000
     22 H9           4.5950     1.4850    21.2360 ha         1 T17       0.160000
     23 N4           3.2040     2.4560    19.1580 nv         1 T17      -0.818200
     24 H11          4.5440     1.8210    16.8850 h4         1 T17       0.036100
     25 F1           7.6910    -0.3900    18.6370 f          1 T17      -0.242200
     26 H41          2.9930     2.9300    20.0280 hn         1 T17       0.407800
     27 H42          2.9040     2.9530    18.3300 hn         1 T17       0.407800
     28 N7          14.5970    -1.4370    20.8920 n1         1 T17      -0.372800
     29 C17          9.1830     2.9210    23.9940 c3         1 T17       0.198800
     30 H91          8.8790     0.9800    24.8410 hn         1 T17       0.440800
     31 C18          7.9880     3.3420    24.8430 c3         1 T17      -0.110100
     32 H172        10.0560     3.5060    24.2820 h1         1 T17       0.054200
     33 H171         8.9600     3.0940    22.9420 h1         1 T17       0.054200
     34 H181         7.7840     4.4010    24.6830 hc         1 T17       0.046033
     35 H182         8.2110     3.1690    25.8950 hc         1 T17       0.046033
     36 H183         7.1150     2.7570    24.5560 hc         1 T17       0.046033
     37 N10          6.6960    -1.5030    21.1470 ns         1 T17      -0.572900
     38 H2L1         6.2720     0.2610    22.1320 h1         1 T17       0.136700
     39 C19          5.5140    -2.0930    21.3200 c          1 T17       0.665300
     40 H101         7.5140    -2.0610    20.9490 hn         1 T17       0.319500
     41 C20          5.4060    -3.4880    21.2300 ce         1 T17      -0.216200
     42 O2           4.5100    -1.4080    21.5620 o          1 T17      -0.587100
     43 C21          6.5430    -4.2630    20.9560 c2         1 T17      -0.164000
     44 H201         4.4480    -3.9660    21.3710 ha         1 T17       0.160000
     45 H211         7.5010    -3.7850    20.8160 ha         1 T17       0.125000
     46 H212         6.4600    -5.3370    20.8870 ha         1 T17       0.125000
@<TRIPOS>BOND
     1     1     2 2   
     2     2     3 1   
     3     2    10 1   
     4     3     4 1   
     5     3    17 1   
     6     4     5 ar  
     7     4     9 ar  
     8     5     6 ar  
     9     5    18 1   
    10     6     7 ar  
    11     7     8 ar  
    12     7    19 1   
    13     8     9 ar  
    14     8    20 1   
    15     9    21 1   
    16    10    11 1   
    17    11    12 ar  
    18    11    16 ar  
    19    12    13 ar  
    20    12    22 1   
    21    13    14 ar  
    22    13    23 1   
    23    14    15 ar  
    24    14    24 1   
    25    15    16 ar  
    26    16    25 1   
    27    23    26 1   
    28    23    27 1   
    29    28    20 3   
    30    29    18 1   
    31    30    18 1   
    32    31    29 1   
    33    32    29 1   
    34    33    29 1   
    35    34    31 1   
    36    35    31 1   
    37    36    31 1   
    38    37    10 1   
    39    38    10 1   
    40    39    37 1   
    41    40    37 1   
    42    41    39 1   
    43    42    39 2   
    44    43    41 2   
    45    44    41 1   
    46    45    43 1   
    47    46    43 1   
@<TRIPOS>SUBSTRUCTURE
     1 T17         1 TEMP              0 ****  ****    0 ROOT
